@<TRIPOS>MOLECULE
CHEMBL423219
   47    49     0     0     0
SMALL
USER_CHARGES

@<TRIPOS>ATOM
      1 C1          2.8655   -0.3754    2.1523 C.3       1 <0>        -0.1188
      2 C2          2.3587    0.4353    3.3172 C.ar      1 <0>        -0.0786
      3 C3          3.2417    0.8910    4.2785 C.ar      1 <0>        -0.1216
      4 C4          2.7769    1.6345    5.3469 C.ar      1 <0>        -0.1144
      5 C5          1.4290    1.9228    5.4542 C.ar      1 <0>        -0.1201
      6 C6          0.5464    1.4679    4.4928 C.ar      1 <0>        -0.0950
      7 C7          1.0119    0.7279    3.4217 C.ar      1 <0>        -0.1127
      8 C8          0.0503    0.2364    2.3707 C.3       1 <0>         0.1525
      9 N1         -1.2908    0.7524    2.6562 N.pl3     1 <0>        -0.4609
     10 C9         -1.7906    1.8988    2.1598 C.2       1 <0>         0.1155
     11 C10        -3.0775    2.0841    2.6295 C.2       1 <0>        -0.2109
     12 C11        -3.3690    0.9250    3.4948 C.ar      1 <0>        -0.0956
     13 C12        -2.2166    0.1257    3.4668 C.ar      1 <0>         0.1321
     14 C13        -2.1909   -1.0596    4.1953 C.ar      1 <0>        -0.1785
     15 C14        -3.2919   -1.4414    4.9323 C.ar      1 <0>        -0.0515
     16 C15        -4.4327   -0.6552    4.9585 C.ar      1 <0>        -0.2469
     17 C16        -4.4761    0.5323    4.2486 C.ar      1 <0>         0.1867
     18 O1         -5.5952    1.3026    4.2722 O.3       1 <0>        -0.2772
     19 C17        -6.6876    0.8355    5.0663 C.3       1 <0>        -0.0072
     20 C18        -7.8315    1.8119    4.9709 C.2       1 <0>         0.5020
     21 O2         -7.7215    2.8148    4.2864 O.co2     1 <0>        -0.6685
     22 O3         -8.8670    1.5989    5.5783 O.co2     1 <0>        -0.6883
     23 C19        -3.9694    3.2030    2.3298 C.2       1 <0>         0.4446
     24 O4         -3.9054    4.2240    2.9864 O.2       1 <0>        -0.4098
     25 C20        -4.9578    3.0918    1.2185 C.2       1 <0>         0.4976
     26 O5         -5.0876    2.0412    0.6245 O.2       1 <0>        -0.5073
     27 N2         -5.7069    4.1579    0.8737 N.am      1 <0>        -0.8256
     28 C21        -1.0597    2.8369    1.2343 C.3       1 <0>        -0.0974
     29 H1          3.0337    0.2812    1.2986 H         1 <0>         0.0724
     30 H2          3.8018   -0.8608    2.4274 H         1 <0>         0.0680
     31 H3          2.1274   -1.1328    1.8882 H         1 <0>         0.0674
     32 H4          4.2946    0.6658    4.1947 H         1 <0>         0.1219
     33 H5          3.4666    1.9899    6.0982 H         1 <0>         0.1213
     34 H6          1.0657    2.5031    6.2894 H         1 <0>         0.1228
     35 H7         -0.5066    1.6928    4.5768 H         1 <0>         0.1272
     36 H8          0.3733    0.5868    1.3904 H         1 <0>         0.1027
     37 H9          0.0295   -0.8534    2.3783 H         1 <0>         0.1027
     38 H10        -1.3079   -1.6812    4.1832 H         1 <0>         0.1162
     39 H11        -3.2650   -2.3630    5.4947 H         1 <0>         0.1251
     40 H12        -5.2879   -0.9665    5.5400 H         1 <0>         0.1309
     41 H13        -7.0108   -0.1396    4.7019 H         1 <0>         0.0608
     42 H14        -6.3701    0.7481    6.1054 H         1 <0>         0.0604
     43 H15        -5.6032    4.9974    1.3483 H         1 <0>         0.4092
     44 H16        -6.3497    4.0855    0.1509 H         1 <0>         0.4057
     45 H17        -1.1775    2.4972    0.2053 H         1 <0>         0.0829
     46 H18        -1.4718    3.8410    1.3349 H         1 <0>         0.0830
     47 H19        -0.0010    2.8511    1.4932 H         1 <0>         0.0755
@<TRIPOS>BOND
     1    1    2 1
     2    1   29 1
     3    1   30 1
     4    1   31 1
     5    2    7 ar
     6    2    3 ar
     7    3    4 ar
     8    3   32 1
     9    4    5 ar
    10    4   33 1
    11    5    6 ar
    12    5   34 1
    13    6    7 ar
    14    6   35 1
    15    7    8 1
    16    8    9 1
    17    8   36 1
    18    8   37 1
    19    9   13 1
    20    9   10 1
    21   10   11 2
    22   10   28 1
    23   11   12 1
    24   11   23 1
    25   12   17 ar
    26   12   13 ar
    27   13   14 ar
    28   14   15 ar
    29   14   38 1
    30   15   16 ar
    31   15   39 1
    32   16   17 ar
    33   16   40 1
    34   17   18 1
    35   18   19 1
    36   19   20 1
    37   19   41 1
    38   19   42 1
    39   20   21 2
    40   20   22 1
    41   23   24 2
    42   23   25 1
    43   25   26 2
    44   25   27 am
    45   27   43 1
    46   27   44 1
    47   28   45 1
    48   28   46 1
    49   28   47 1
@<TRIPOS>MOLECULE
CHEMBL179658
   54    57     0     0     0
SMALL
USER_CHARGES

@<TRIPOS>ATOM
      1 C1          0.3141    2.0393   -0.5645 C.3       1 <0>        -0.1587
      2 C2          0.1328    0.5486   -0.2717 C.3       1 <0>        -0.0645
      3 C3          0.6789   -0.2590   -1.4209 C.2       1 <0>         0.1224
      4 C4         -0.0074   -0.5567   -2.5835 C.2       1 <0>        -0.2088
      5 C5          0.9155   -1.3588   -3.4095 C.ar      1 <0>        -0.0954
      6 C6          0.8225   -1.9539   -4.6688 C.ar      1 <0>         0.1883
      7 C7          1.9008   -2.6582   -5.1702 C.ar      1 <0>        -0.2341
      8 C8          3.0716   -2.7767   -4.4308 C.ar      1 <0>        -0.0308
      9 C9          3.1724   -2.1924   -3.1860 C.ar      1 <0>        -0.1660
     10 C10         2.0953   -1.4774   -2.6630 C.ar      1 <0>         0.1518
     11 N1          1.9114   -0.7963   -1.4756 N.pl3     1 <0>        -0.4539
     12 C11         2.9192   -0.6776   -0.4190 C.3       1 <0>         0.1437
     13 C12         3.6453    0.6352   -0.5626 C.ar      1 <0>        -0.1138
     14 C13         4.7006    0.7481   -1.4483 C.ar      1 <0>        -0.1001
     15 C14         5.3666    1.9522   -1.5800 C.ar      1 <0>        -0.1214
     16 C15         4.9770    3.0436   -0.8263 C.ar      1 <0>        -0.1111
     17 C16         3.9212    2.9309    0.0588 C.ar      1 <0>        -0.1237
     18 C17         3.2524    1.7279    0.1873 C.ar      1 <0>        -0.0987
     19 C18         4.5395   -2.4697   -2.5972 C.3       1 <0>        -0.0692
     20 C19         5.1022   -3.6472   -3.4210 C.3       1 <0>        -0.1173
     21 C20         4.3657   -3.4886   -4.7678 C.3       1 <0>        -0.0789
     22 O1         -0.3198   -1.8419   -5.3959 O.3       1 <0>        -0.2760
     23 C21        -0.3393   -2.4780   -6.6754 C.3       1 <0>        -0.0072
     24 C22        -1.6768   -2.2479   -7.3304 C.2       1 <0>         0.5023
     25 O2         -2.5340   -1.5994   -6.7549 O.co2     1 <0>        -0.6682
     26 O3         -1.9018   -2.7103   -8.4359 O.co2     1 <0>        -0.6883
     27 C23        -1.3717   -0.1578   -2.9253 C.2       1 <0>         0.4418
     28 O4         -1.5660    0.8576   -3.5647 O.2       1 <0>        -0.4036
     29 C24        -2.5252   -0.9968   -2.4895 C.2       1 <0>         0.4959
     30 O5         -2.3376   -1.9686   -1.7867 O.2       1 <0>        -0.5146
     31 N2         -3.7758   -0.6761   -2.8761 N.am      1 <0>        -0.8228
     32 H1          1.3554    2.2355   -0.8198 H         1 <0>         0.0675
     33 H2         -0.3250    2.3260   -1.3996 H         1 <0>         0.0634
     34 H3          0.0410    2.6186    0.3175 H         1 <0>         0.0631
     35 H4          0.6690    0.2898    0.6413 H         1 <0>         0.0770
     36 H5         -0.9274    0.3295   -0.1451 H         1 <0>         0.0873
     37 H6          1.8329   -3.1204   -6.1439 H         1 <0>         0.1291
     38 H7          2.4312   -0.7183    0.5548 H         1 <0>         0.0963
     39 H8          3.6319   -1.4980   -0.5029 H         1 <0>         0.1037
     40 H9          5.0049   -0.1046   -2.0372 H         1 <0>         0.1280
     41 H10         6.1915    2.0402   -2.2715 H         1 <0>         0.1229
     42 H11         5.4978    3.9842   -0.9287 H         1 <0>         0.1217
     43 H12         3.6170    3.7835    0.6479 H         1 <0>         0.1233
     44 H13         2.4251    1.6409    0.8761 H         1 <0>         0.1249
     45 H14         5.1808   -1.5946   -2.7014 H         1 <0>         0.0710
     46 H15         4.4494   -2.7510   -1.5480 H         1 <0>         0.0638
     47 H16         6.1794   -3.5475   -3.5541 H         1 <0>         0.0735
     48 H17         4.8548   -4.6005   -2.9538 H         1 <0>         0.0719
     49 H18         4.1574   -4.4663   -5.2024 H         1 <0>         0.0755
     50 H19         4.9602   -2.8871   -5.4554 H         1 <0>         0.0796
     51 H20         0.4487   -2.0592   -7.3014 H         1 <0>         0.0601
     52 H21        -0.1746   -3.5483   -6.5516 H         1 <0>         0.0601
     53 H22        -3.9257    0.1005   -3.4378 H         1 <0>         0.4122
     54 H23        -4.5261   -1.2217   -2.5927 H         1 <0>         0.4051
@<TRIPOS>BOND
     1    1    2 1
     2    1   32 1
     3    1   33 1
     4    1   34 1
     5    2    3 1
     6    2   35 1
     7    2   36 1
     8    3   11 1
     9    3    4 2
    10    4    5 1
    11    4   27 1
    12    5   10 ar
    13    5    6 ar
    14    6    7 ar
    15    6   22 1
    16    7    8 ar
    17    7   37 1
    18    8   21 1
    19    8    9 ar
    20    9   10 ar
    21    9   19 1
    22   10   11 1
    23   11   12 1
    24   12   13 1
    25   12   38 1
    26   12   39 1
    27   13   18 ar
    28   13   14 ar
    29   14   15 ar
    30   14   40 1
    31   15   16 ar
    32   15   41 1
    33   16   17 ar
    34   16   42 1
    35   17   18 ar
    36   17   43 1
    37   18   44 1
    38   19   20 1
    39   19   45 1
    40   19   46 1
    41   20   21 1
    42   20   47 1
    43   20   48 1
    44   21   49 1
    45   21   50 1
    46   22   23 1
    47   23   24 1
    48   23   51 1
    49   23   52 1
    50   24   25 2
    51   24   26 1
    52   27   28 2
    53   27   29 1
    54   29   30 2
    55   29   31 am
    56   31   53 1
    57   31   54 1
@<TRIPOS>MOLECULE
CHEMBL356606
   57    60     0     0     0
SMALL
USER_CHARGES

@<TRIPOS>ATOM
      1 C1         -0.2402    1.3255    0.2598 C.3       1 <0>        -0.1494
      2 C2         -0.1073   -0.1957    0.1637 C.3       1 <0>        -0.0659
      3 C3          0.5687   -0.5599   -1.1330 C.2       1 <0>         0.1227
      4 C4         -0.0796   -0.8025   -2.3295 C.2       1 <0>        -0.2085
      5 C5          0.9760   -1.1174   -3.3113 C.ar      1 <0>        -0.0964
      6 C6          2.1884   -1.0360   -2.6106 C.ar      1 <0>         0.1318
      7 N1          1.8966   -0.6933   -1.3051 N.pl3     1 <0>        -0.4593
      8 C7          2.8959   -0.5041   -0.2507 C.3       1 <0>         0.1515
      9 C8          3.1585   -1.8205    0.4344 C.ar      1 <0>        -0.0978
     10 C9          2.5891   -2.9795   -0.0533 C.ar      1 <0>        -0.0957
     11 C10         2.8293   -4.1882    0.5745 C.ar      1 <0>        -0.1093
     12 C11         3.6411   -4.2431    1.6934 C.ar      1 <0>        -0.1161
     13 C12         4.2159   -3.0906    2.1891 C.ar      1 <0>        -0.1059
     14 C13         3.9811   -1.8707    1.5577 C.ar      1 <0>        -0.0438
     15 C14         4.6006   -0.6288    2.0831 C.ar      1 <0>        -0.0462
     16 C15         5.3923    0.1628    1.2536 C.ar      1 <0>        -0.1107
     17 C16         5.9656    1.3171    1.7474 C.ar      1 <0>        -0.1159
     18 C17         5.7554    1.6885    3.0631 C.ar      1 <0>        -0.1187
     19 C18         4.9707    0.9062    3.8911 C.ar      1 <0>        -0.1177
     20 C19         4.3879   -0.2470    3.4062 C.ar      1 <0>        -0.1049
     21 C20         3.3817   -1.2852   -3.2816 C.ar      1 <0>        -0.1786
     22 C21         3.3662   -1.6079   -4.6220 C.ar      1 <0>        -0.0513
     23 C22         2.1696   -1.6888   -5.3161 C.ar      1 <0>        -0.2467
     24 C23         0.9711   -1.4452   -4.6680 C.ar      1 <0>         0.1859
     25 O1         -0.2025   -1.5247   -5.3480 O.3       1 <0>        -0.2779
     26 C24        -0.1276   -1.8654   -6.7337 C.3       1 <0>        -0.0072
     27 C25        -1.5166   -1.9059   -7.3169 C.2       1 <0>         0.5021
     28 O2         -2.4813   -1.6653   -6.6113 O.co2     1 <0>        -0.6682
     29 O3         -1.6756   -2.1793   -8.4944 O.co2     1 <0>        -0.6881
     30 C26        -1.5205   -0.7571   -2.5728 C.2       1 <0>         0.4439
     31 O4         -2.0582    0.2989   -2.8436 O.2       1 <0>        -0.4091
     32 C27        -2.3306   -2.0065   -2.4889 C.2       1 <0>         0.4974
     33 O5         -1.8131   -3.0421   -2.1238 O.2       1 <0>        -0.5137
     34 N2         -3.6373   -1.9857   -2.8183 N.am      1 <0>        -0.8208
     35 H1          0.7502    1.7795    0.2264 H         1 <0>         0.0548
     36 H2         -0.8362    1.6917   -0.5761 H         1 <0>         0.0673
     37 H3         -0.7292    1.5890    1.1977 H         1 <0>         0.0642
     38 H4          0.4887   -0.5619    0.9996 H         1 <0>         0.0792
     39 H5         -1.0977   -0.6497    0.1971 H         1 <0>         0.0864
     40 H6          3.8215   -0.1321   -0.6899 H         1 <0>         0.1031
     41 H7          2.5239    0.2166    0.4774 H         1 <0>         0.1025
     42 H8          1.9545   -2.9424   -0.9264 H         1 <0>         0.1321
     43 H9          2.3812   -5.0925    0.1901 H         1 <0>         0.1255
     44 H10         3.8251   -5.1895    2.1799 H         1 <0>         0.1241
     45 H11         4.8492   -3.1345    3.0629 H         1 <0>         0.1237
     46 H12         5.5573   -0.1265    0.2263 H         1 <0>         0.1235
     47 H13         6.5797    1.9312    1.1055 H         1 <0>         0.1245
     48 H14         6.2059    2.5926    3.4455 H         1 <0>         0.1219
     49 H15         4.8102    1.2008    4.9177 H         1 <0>         0.1234
     50 H16         3.7717   -0.8548    4.0522 H         1 <0>         0.1237
     51 H17         4.3211   -1.2254   -2.7520 H         1 <0>         0.1156
     52 H18         4.2963   -1.7993   -5.1364 H         1 <0>         0.1251
     53 H19         2.1722   -1.9426   -6.3659 H         1 <0>         0.1308
     54 H20         0.4659   -1.1179   -7.2601 H         1 <0>         0.0604
     55 H21         0.3408   -2.8436   -6.8426 H         1 <0>         0.0604
     56 H22        -4.0509   -1.1582   -3.1101 H         1 <0>         0.4112
     57 H23        -4.1643   -2.7983   -2.7637 H         1 <0>         0.4055
@<TRIPOS>BOND
     1    1    2 1
     2    1   35 1
     3    1   36 1
     4    1   37 1
     5    2    3 1
     6    2   38 1
     7    2   39 1
     8    3    7 1
     9    3    4 2
    10    4    5 1
    11    4   30 1
    12    5   24 ar
    13    5    6 ar
    14    6    7 1
    15    6   21 ar
    16    7    8 1
    17    8    9 1
    18    8   40 1
    19    8   41 1
    20    9   14 ar
    21    9   10 ar
    22   10   11 ar
    23   10   42 1
    24   11   12 ar
    25   11   43 1
    26   12   13 ar
    27   12   44 1
    28   13   14 ar
    29   13   45 1
    30   14   15 1
    31   15   20 ar
    32   15   16 ar
    33   16   17 ar
    34   16   46 1
    35   17   18 ar
    36   17   47 1
    37   18   19 ar
    38   18   48 1
    39   19   20 ar
    40   19   49 1
    41   20   50 1
    42   21   22 ar
    43   21   51 1
    44   22   23 ar
    45   22   52 1
    46   23   24 ar
    47   23   53 1
    48   24   25 1
    49   25   26 1
    50   26   27 1
    51   26   54 1
    52   26   55 1
    53   27   28 2
    54   27   29 1
    55   30   31 2
    56   30   32 1
    57   32   33 2
    58   32   34 am
    59   34   56 1
    60   34   57 1
@<TRIPOS>MOLECULE
CHEMBL345488
   44    46     0     0     0
SMALL
USER_CHARGES

@<TRIPOS>ATOM
      1 C1          0.4296    1.0352   -0.3494 C.3       1 <0>        -0.1078
      2 C2          0.2312   -0.4263   -0.0398 C.2       1 <0>         0.1182
      3 C3          0.0615   -1.4247   -0.9806 C.2       1 <0>        -0.2094
      4 C4         -0.0935   -2.6809   -0.2220 C.ar      1 <0>        -0.0935
      5 C5         -0.0023   -2.3253    1.1318 C.ar      1 <0>         0.1367
      6 N1          0.1979   -0.9604    1.1948 N.pl3     1 <0>        -0.4557
      7 C6          0.3498   -0.1977    2.4363 C.3       1 <0>         0.1434
      8 C7          1.8138    0.0377    2.7053 C.ar      1 <0>        -0.0998
      9 C8          2.5673   -0.9374    3.3339 C.ar      1 <0>        -0.0097
     10 C9          3.9114   -0.7207    3.5807 C.ar      1 <0>        -0.1063
     11 C10         4.5011    0.4699    3.1998 C.ar      1 <0>        -0.0859
     12 C11         3.7487    1.4446    2.5717 C.ar      1 <0>        -0.1079
     13 C12         2.4060    1.2266    2.3188 C.ar      1 <0>        -0.0116
     14 Cl1         1.4630    2.4477    1.5230 Cl        1 <0>        -0.0462
     15 Cl2         1.8265   -2.4324    3.8134 Cl        1 <0>        -0.0331
     16 C13        -0.1124   -3.3136    2.1052 C.ar      1 <0>        -0.1788
     17 C14        -0.3087   -4.6276    1.7364 C.ar      1 <0>        -0.0550
     18 C15        -0.3991   -4.9810    0.3996 C.ar      1 <0>        -0.2454
     19 C16        -0.2927   -4.0138   -0.5848 C.ar      1 <0>         0.1859
     20 O1         -0.3816   -4.3597   -1.8957 O.3       1 <0>        -0.2773
     21 C17        -0.5859   -5.7432   -2.1892 C.3       1 <0>        -0.0069
     22 C18        -0.6585   -5.9347   -3.6822 C.2       1 <0>         0.5021
     23 O2         -0.5458   -4.9752   -4.4260 O.co2     1 <0>        -0.6686
     24 O3         -0.8300   -7.0490   -4.1463 O.co2     1 <0>        -0.6887
     25 C19         0.0391   -1.2676   -2.4339 C.2       1 <0>         0.4437
     26 O4         -1.0088   -1.0340   -3.0040 O.2       1 <0>        -0.4072
     27 C20         1.3020   -1.3940   -3.2172 C.2       1 <0>         0.4971
     28 O5          2.3265   -1.7397   -2.6653 O.2       1 <0>        -0.5072
     29 N2          1.3059   -1.1243   -4.5377 N.am      1 <0>        -0.8264
     30 H1          1.4942    1.2685   -0.3343 H         1 <0>         0.0882
     31 H2          0.0232    1.2559   -1.3365 H         1 <0>         0.0777
     32 H3         -0.0852    1.6382    0.3986 H         1 <0>         0.0811
     33 H4         -0.1603    0.7606    2.3387 H         1 <0>         0.1063
     34 H5         -0.0859   -0.7587    3.2630 H         1 <0>         0.1095
     35 H6          4.4997   -1.4819    4.0714 H         1 <0>         0.1428
     36 H7          5.5501    0.6389    3.3933 H         1 <0>         0.1442
     37 H8          4.2100    2.3748    2.2746 H         1 <0>         0.1428
     38 H9         -0.0437   -3.0511    3.1506 H         1 <0>         0.1198
     39 H10        -0.3926   -5.3893    2.4974 H         1 <0>         0.1231
     40 H11        -0.5530   -6.0141    0.1250 H         1 <0>         0.1304
     41 H12         0.2433   -6.3260   -1.7881 H         1 <0>         0.0603
     42 H13        -1.5184   -6.0773   -1.7342 H         1 <0>         0.0604
     43 H14         0.4873   -0.8481   -4.9787 H         1 <0>         0.4094
     44 H15         2.1273   -1.2065   -5.0471 H         1 <0>         0.4053
@<TRIPOS>BOND
     1    1    2 1
     2    1   30 1
     3    1   31 1
     4    1   32 1
     5    2    6 1
     6    2    3 2
     7    3    4 1
     8    3   25 1
     9    4   19 ar
    10    4    5 ar
    11    5    6 1
    12    5   16 ar
    13    6    7 1
    14    7    8 1
    15    7   33 1
    16    7   34 1
    17    8   13 ar
    18    8    9 ar
    19    9   10 ar
    20    9   15 1
    21   10   11 ar
    22   10   35 1
    23   11   12 ar
    24   11   36 1
    25   12   13 ar
    26   12   37 1
    27   13   14 1
    28   16   17 ar
    29   16   38 1
    30   17   18 ar
    31   17   39 1
    32   18   19 ar
    33   18   40 1
    34   19   20 1
    35   20   21 1
    36   21   22 1
    37   21   41 1
    38   21   42 1
    39   22   23 2
    40   22   24 1
    41   25   26 2
    42   25   27 1
    43   27   28 2
    44   27   29 am
    45   29   43 1
    46   29   44 1
@<TRIPOS>MOLECULE
CHEMBL145978
   55    58     0     0     0
SMALL
USER_CHARGES

@<TRIPOS>ATOM
      1 C1          0.4123    1.6449   -0.4128 C.ar      1 <0>        -0.1126
      2 C2          1.6665    2.2259   -0.3952 C.ar      1 <0>        -0.1193
      3 C3          2.7943    1.4328   -0.2953 C.ar      1 <0>        -0.0975
      4 C4          2.6678    0.0588   -0.2127 C.ar      1 <0>        -0.1108
      5 C5          1.4136   -0.5222   -0.2294 C.ar      1 <0>        -0.0986
      6 C6          0.2859    0.2708   -0.3307 C.ar      1 <0>        -0.1223
      7 C7          3.8974   -0.8059   -0.1048 C.3       1 <0>         0.1521
      8 N1          4.2371   -0.9979    1.3072 N.pl3     1 <0>        -0.4693
      9 C8          5.0669   -0.1768    2.0414 C.ar      1 <0>         0.0692
     10 C9          5.7820    0.9767    1.7367 C.ar      1 <0>        -0.0893
     11 C10         6.5436    1.5905    2.7057 C.ar      1 <0>        -0.1785
     12 C11         6.6071    1.0676    3.9949 C.ar      1 <0>         0.1155
     13 C12         5.9051   -0.0765    4.3171 C.ar      1 <0>        -0.1189
     14 C13         5.1290   -0.7073    3.3421 C.ar      1 <0>        -0.0482
     15 C14         4.2796   -1.9009    3.3343 C.2       1 <0>        -0.1548
     16 C15         3.7737   -2.0150    2.0960 C.2       1 <0>         0.1365
     17 C16         2.8377   -3.1049    1.6410 C.3       1 <0>        -0.1007
     18 C17         3.2244   -4.5493    1.9653 C.3       1 <0>        -0.1616
     19 C18         3.3243   -4.0350    0.5278 C.3       1 <0>        -0.1748
     20 C19         4.0180   -2.8223    4.4977 C.3       1 <0>        -0.0671
     21 C20         2.8203   -2.3302    5.2688 C.2       1 <0>         0.5147
     22 O1          2.2367   -1.3298    4.9090 O.2       1 <0>        -0.5273
     23 N2          2.3978   -3.0019    6.3582 N.am      1 <0>        -0.8634
     24 O2          7.3642    1.6863    4.9401 O.3       1 <0>        -0.3138
     25 C21         8.0653    2.8654    4.5400 C.3       1 <0>         0.0605
     26 C22         8.8562    3.4164    5.7282 C.3       1 <0>        -0.0918
     27 C23         9.6069    4.6789    5.2999 C.3       1 <0>        -0.1801
     28 C24        10.3859    5.2215    6.4702 C.2       1 <0>         0.4910
     29 O3         10.3444    4.6514    7.5471 O.co2     1 <0>        -0.6956
     30 O4         11.0575    6.2307    6.3402 O.co2     1 <0>        -0.7058
     31 H1         -0.4690    2.2648   -0.4863 H         1 <0>         0.1220
     32 H2          1.7652    3.2995   -0.4597 H         1 <0>         0.1238
     33 H3          3.7742    1.8867   -0.2823 H         1 <0>         0.1212
     34 H4          1.3149   -1.5958   -0.1652 H         1 <0>         0.1200
     35 H5         -0.6940   -0.1831   -0.3442 H         1 <0>         0.1218
     36 H6          3.7025   -1.7739   -0.5665 H         1 <0>         0.0970
     37 H7          4.7289   -0.3205   -0.6158 H         1 <0>         0.0924
     38 H8          5.7402    1.3906    0.7400 H         1 <0>         0.1172
     39 H9          7.0971    2.4857    2.4636 H         1 <0>         0.1321
     40 H10         5.9558   -0.4814    5.3170 H         1 <0>         0.1256
     41 H11         1.7777   -2.8515    1.6577 H         1 <0>         0.1190
     42 H12         4.1559   -4.7112    2.5078 H         1 <0>         0.1034
     43 H13         2.4187   -5.2464    2.1956 H         1 <0>         0.1022
     44 H14         2.5843   -4.3937   -0.1876 H         1 <0>         0.1001
     45 H15         4.3214   -3.8585    0.1246 H         1 <0>         0.0971
     46 H16         3.8232   -3.8288    4.1273 H         1 <0>         0.1010
     47 H17         4.8898   -2.8382    5.1517 H         1 <0>         0.0998
     48 H18         2.8646   -3.8021    6.6459 H         1 <0>         0.3991
     49 H19         1.6270   -2.6852    6.8545 H         1 <0>         0.3985
     50 H20         8.7511    2.6226    3.7283 H         1 <0>         0.0555
     51 H21         7.3509    3.6152    4.2000 H         1 <0>         0.0552
     52 H22         8.1704    3.6593    6.5399 H         1 <0>         0.0707
     53 H23         9.5706    2.6666    6.0682 H         1 <0>         0.0708
     54 H24        10.2927    4.4360    4.4882 H         1 <0>         0.0586
     55 H25         8.8925    5.4286    4.9599 H         1 <0>         0.0586
@<TRIPOS>BOND
     1    1    6 ar
     2    1    2 ar
     3    1   31 1
     4    2    3 ar
     5    2   32 1
     6    3    4 ar
     7    3   33 1
     8    4    5 ar
     9    4    7 1
    10    5    6 ar
    11    5   34 1
    12    6   35 1
    13    7    8 1
    14    7   36 1
    15    7   37 1
    16    8   16 1
    17    8    9 1
    18    9   14 ar
    19    9   10 ar
    20   10   11 ar
    21   10   38 1
    22   11   12 ar
    23   11   39 1
    24   12   13 ar
    25   12   24 1
    26   13   14 ar
    27   13   40 1
    28   14   15 1
    29   15   16 2
    30   15   20 1
    31   16   17 1
    32   17   19 1
    33   17   18 1
    34   17   41 1
    35   18   19 1
    36   18   42 1
    37   18   43 1
    38   19   44 1
    39   19   45 1
    40   20   21 1
    41   20   46 1
    42   20   47 1
    43   21   22 2
    44   21   23 am
    45   23   48 1
    46   23   49 1
    47   24   25 1
    48   25   26 1
    49   25   50 1
    50   25   51 1
    51   26   27 1
    52   26   52 1
    53   26   53 1
    54   27   28 1
    55   27   54 1
    56   27   55 1
    57   28   29 2
    58   28   30 1
@<TRIPOS>MOLECULE
CHEMBL109073
   63    64     0     0     0
SMALL
USER_CHARGES

@<TRIPOS>ATOM
      1 C1          0.0920    1.2369   -0.1022 C.3       1 <0>        -0.1186
      2 C2          0.4215   -0.2319   -0.0302 C.2       1 <0>        -0.1334
      3 C3          0.6762   -0.7901    1.1272 C.2       1 <0>        -0.1690
      4 C4          0.5258    0.0068    2.3974 C.3       1 <0>        -0.0867
      5 C5         -0.4082   -0.7338    3.3566 C.3       1 <0>        -0.0769
      6 C6         -0.5585    0.0631    4.6268 C.2       1 <0>        -0.1267
      7 C7         -1.5708    0.8821    4.7703 C.2       1 <0>        -0.1630
      8 C8         -1.7735    1.6082    6.0752 C.3       1 <0>        -0.0869
      9 C9         -1.8737    3.1120    5.8119 C.3       1 <0>        -0.0749
     10 C10        -2.0764    3.8381    7.1168 C.2       1 <0>        -0.1199
     11 C11        -1.0470    4.3356    7.7563 C.2       1 <0>        -0.1481
     12 C12        -1.2322    4.9499    9.1199 C.3       1 <0>        -0.0550
     13 C13        -0.2891    4.2969   10.0973 C.2       1 <0>        -0.1355
     14 C14         0.8545    4.8678   10.3335 C.2       1 <0>        -0.1259
     15 C15         1.8583    4.2984   11.2978 C.3       1 <0>        -0.1202
     16 C16         1.5181    2.8339   11.5881 C.3       1 <0>         0.1474
     17 O1          0.1194    2.7455   11.8871 O.3       1 <0>        -0.3687
     18 C17        -0.7142    3.0178   10.7606 C.3       1 <0>         0.2984
     19 O2         -0.6068    1.9415    9.8268 O.3       1 <0>        -0.5639
     20 C18         2.3210    2.3505   12.7682 C.2       1 <0>        -0.0731
     21 C19         3.2632    1.4101   12.7552 C.2       1 <0>        -0.1946
     22 C20         3.7935    1.2464   14.1123 C.2       1 <0>         0.5044
     23 O3          4.6671    0.4642   14.4317 O.2       1 <0>        -0.4380
     24 O4          3.1681    2.0929   14.9510 O.3       1 <0>        -0.3429
     25 C21         2.2158    2.8447   14.1917 C.3       1 <0>         0.2750
     26 O5          0.8986    2.6133   14.6952 O.3       1 <0>        -0.5222
     27 C22        -3.4633    3.9918    7.6860 C.3       1 <0>        -0.1202
     28 C23         0.4557   -0.0821    5.7319 C.3       1 <0>        -0.1202
     29 C24         0.4581   -1.0585   -1.2898 C.3       1 <0>        -0.1186
     30 H1          0.8874    1.8114    0.3726 H         1 <0>         0.0648
     31 H2         -0.0004    1.5378   -1.1458 H         1 <0>         0.0597
     32 H3         -0.8494    1.4238    0.4145 H         1 <0>         0.0659
     33 H4          0.9938   -1.8214    1.1711 H         1 <0>         0.1076
     34 H5          1.5023    0.1321    2.8654 H         1 <0>         0.0685
     35 H6          0.1061    0.9855    2.1648 H         1 <0>         0.0708
     36 H7         -1.3846   -0.8591    2.8886 H         1 <0>         0.0666
     37 H8          0.0115   -1.7125    3.5892 H         1 <0>         0.0684
     38 H9         -2.2601    1.0370    3.9534 H         1 <0>         0.1055
     39 H10        -2.6928    1.2597    6.5459 H         1 <0>         0.0679
     40 H11        -0.9295    1.4104    6.7359 H         1 <0>         0.0799
     41 H12        -0.9544    3.4605    5.3412 H         1 <0>         0.0647
     42 H13        -2.7177    3.3098    5.1511 H         1 <0>         0.0648
     43 H14        -0.0657    4.3055    7.3063 H         1 <0>         0.1054
     44 H15        -1.0206    6.0179    9.0690 H         1 <0>         0.0780
     45 H16        -2.2599    4.7984    9.4501 H         1 <0>         0.0801
     46 H17         1.0932    5.7859    9.8173 H         1 <0>         0.1234
     47 H18         2.8555    4.3599   10.8622 H         1 <0>         0.0931
     48 H19         1.8327    4.8680   12.2268 H         1 <0>         0.0886
     49 H20         1.7458    2.2239   10.7139 H         1 <0>         0.0942
     50 H21        -1.7501    3.1075   11.0880 H         1 <0>         0.1083
     51 H22        -0.8655    1.0818   10.1861 H         1 <0>         0.3841
     52 H23         3.5851    0.8570   11.8853 H         1 <0>         0.1777
     53 H24         2.4530    3.9076   14.2373 H         1 <0>         0.1226
     54 H25         0.7682    2.9096   15.6064 H         1 <0>         0.3947
     55 H26        -3.6512    3.1946    8.4052 H         1 <0>         0.0652
     56 H27        -3.5465    4.9577    8.1842 H         1 <0>         0.0640
     57 H28        -4.1951    3.9342    6.8803 H         1 <0>         0.0610
     58 H29         1.2063    0.7031    5.6417 H         1 <0>         0.0646
     59 H30        -0.0439    0.0020    6.6970 H         1 <0>         0.0698
     60 H31         0.9384   -1.0565    5.6563 H         1 <0>         0.0582
     61 H32         1.4646   -1.0396   -1.7077 H         1 <0>         0.0653
     62 H33         0.1803   -2.0867   -1.0578 H         1 <0>         0.0617
     63 H34        -0.2442   -0.6472   -2.0148 H         1 <0>         0.0631
@<TRIPOS>BOND
     1    1    2 1
     2    1   30 1
     3    1   31 1
     4    1   32 1
     5    2    3 2
     6    2   29 1
     7    3    4 1
     8    3   33 1
     9    4    5 1
    10    4   34 1
    11    4   35 1
    12    5    6 1
    13    5   36 1
    14    5   37 1
    15    6    7 2
    16    6   28 1
    17    7    8 1
    18    7   38 1
    19    8    9 1
    20    8   39 1
    21    8   40 1
    22    9   10 1
    23    9   41 1
    24    9   42 1
    25   10   11 2
    26   10   27 1
    27   11   12 1
    28   11   43 1
    29   12   13 1
    30   12   44 1
    31   12   45 1
    32   13   18 1
    33   13   14 2
    34   14   15 1
    35   14   46 1
    36   15   16 1
    37   15   47 1
    38   15   48 1
    39   16   17 1
    40   16   20 1
    41   16   49 1
    42   17   18 1
    43   18   19 1
    44   18   50 1
    45   19   51 1
    46   20   25 1
    47   20   21 2
    48   21   22 1
    49   21   52 1
    50   22   23 2
    51   22   24 1
    52   24   25 1
    53   25   26 1
    54   25   53 1
    55   26   54 1
    56   27   55 1
    57   27   56 1
    58   27   57 1
    59   28   58 1
    60   28   59 1
    61   28   60 1
    62   29   61 1
    63   29   62 1
    64   29   63 1
@<TRIPOS>MOLECULE
CHEMBL109073__1
   63    64     0     0     0
SMALL
USER_CHARGES

@<TRIPOS>ATOM
      1 C1          0.0920    1.2369   -0.1022 C.3       1 <0>        -0.1187
      2 C2          0.4215   -0.2319   -0.0302 C.2       1 <0>        -0.1333
      3 C3          0.6762   -0.7901    1.1272 C.2       1 <0>        -0.1690
      4 C4          0.5258    0.0068    2.3974 C.3       1 <0>        -0.0868
      5 C5         -0.4082   -0.7338    3.3566 C.3       1 <0>        -0.0769
      6 C6         -0.5585    0.0631    4.6268 C.2       1 <0>        -0.1267
      7 C7         -1.5708    0.8821    4.7703 C.2       1 <0>        -0.1631
      8 C8         -1.7735    1.6082    6.0752 C.3       1 <0>        -0.0867
      9 C9         -1.8737    3.1120    5.8119 C.3       1 <0>        -0.0749
     10 C10        -2.0764    3.8381    7.1168 C.2       1 <0>        -0.1211
     11 C11        -1.0470    4.3356    7.7563 C.2       1 <0>        -0.1474
     12 C12        -1.2322    4.9499    9.1199 C.3       1 <0>        -0.0539
     13 C13        -0.2891    4.2969   10.0973 C.2       1 <0>        -0.1446
     14 C14         0.8545    4.8678   10.3335 C.2       1 <0>        -0.1184
     15 C15         1.8583    4.2984   11.2978 C.3       1 <0>        -0.1220
     16 C16         1.5181    2.8339   11.5881 C.3       1 <0>         0.1495
     17 O1          0.1194    2.7455   11.8871 O.3       1 <0>        -0.3873
     18 C17        -0.7142    3.0178   10.7606 C.3       1 <0>         0.3029
     19 O2         -0.6068    1.9415    9.8268 O.3       1 <0>        -0.5622
     20 C18         2.3210    2.3505   12.7682 C.2       1 <0>        -0.0711
     21 C19         3.2632    1.4101   12.7552 C.2       1 <0>        -0.1965
     22 C20         3.7935    1.2464   14.1123 C.2       1 <0>         0.5044
     23 O3          4.6671    0.4642   14.4317 O.2       1 <0>        -0.4379
     24 O4          3.1681    2.0929   14.9510 O.3       1 <0>        -0.3420
     25 C21         2.2158    2.8447   14.1917 C.3       1 <0>         0.2762
     26 O5          2.5267    4.2382   14.2515 O.3       1 <0>        -0.5350
     27 C22        -3.4633    3.9918    7.6860 C.3       1 <0>        -0.1198
     28 C23         0.4557   -0.0821    5.7319 C.3       1 <0>        -0.1202
     29 C24         0.4581   -1.0585   -1.2898 C.3       1 <0>        -0.1186
     30 H1          0.8874    1.8114    0.3726 H         1 <0>         0.0648
     31 H2         -0.0004    1.5378   -1.1458 H         1 <0>         0.0597
     32 H3         -0.8494    1.4238    0.4145 H         1 <0>         0.0659
     33 H4          0.9938   -1.8214    1.1711 H         1 <0>         0.1076
     34 H5          1.5023    0.1321    2.8654 H         1 <0>         0.0685
     35 H6          0.1061    0.9855    2.1648 H         1 <0>         0.0708
     36 H7         -1.3846   -0.8591    2.8886 H         1 <0>         0.0666
     37 H8          0.0115   -1.7125    3.5892 H         1 <0>         0.0684
     38 H9         -2.2601    1.0370    3.9534 H         1 <0>         0.1055
     39 H10        -2.6928    1.2597    6.5459 H         1 <0>         0.0677
     40 H11        -0.9295    1.4104    6.7359 H         1 <0>         0.0798
     41 H12        -0.9544    3.4605    5.3412 H         1 <0>         0.0647
     42 H13        -2.7177    3.3098    5.1511 H         1 <0>         0.0647
     43 H14        -0.0657    4.3055    7.3063 H         1 <0>         0.1053
     44 H15        -1.0206    6.0179    9.0690 H         1 <0>         0.0780
     45 H16        -2.2599    4.7984    9.4501 H         1 <0>         0.0793
     46 H17         1.0932    5.7859    9.8173 H         1 <0>         0.1226
     47 H18         2.8555    4.3599   10.8622 H         1 <0>         0.0900
     48 H19         1.8327    4.8680   12.2268 H         1 <0>         0.1077
     49 H20         1.7458    2.2239   10.7139 H         1 <0>         0.0936
     50 H21        -1.7501    3.1075   11.0880 H         1 <0>         0.1087
     51 H22        -0.8655    1.0818   10.1861 H         1 <0>         0.3833
     52 H23         3.5851    0.8570   11.8853 H         1 <0>         0.1777
     53 H24         1.2111    2.6682   14.5758 H         1 <0>         0.1291
     54 H25         2.4766    4.6145   15.1408 H         1 <0>         0.3991
     55 H26        -3.6512    3.1946    8.4052 H         1 <0>         0.0647
     56 H27        -3.5465    4.9577    8.1842 H         1 <0>         0.0639
     57 H28        -4.1951    3.9342    6.8803 H         1 <0>         0.0609
     58 H29         1.2063    0.7031    5.6417 H         1 <0>         0.0647
     59 H30        -0.0439    0.0020    6.6970 H         1 <0>         0.0697
     60 H31         0.9384   -1.0565    5.6563 H         1 <0>         0.0581
     61 H32         1.4646   -1.0396   -1.7077 H         1 <0>         0.0653
     62 H33         0.1803   -2.0867   -1.0578 H         1 <0>         0.0617
     63 H34        -0.2442   -0.6472   -2.0148 H         1 <0>         0.0631
@<TRIPOS>BOND
     1    1    2 1
     2    1   30 1
     3    1   31 1
     4    1   32 1
     5    2    3 2
     6    2   29 1
     7    3    4 1
     8    3   33 1
     9    4    5 1
    10    4   34 1
    11    4   35 1
    12    5    6 1
    13    5   36 1
    14    5   37 1
    15    6    7 2
    16    6   28 1
    17    7    8 1
    18    7   38 1
    19    8    9 1
    20    8   39 1
    21    8   40 1
    22    9   10 1
    23    9   41 1
    24    9   42 1
    25   10   11 2
    26   10   27 1
    27   11   12 1
    28   11   43 1
    29   12   13 1
    30   12   44 1
    31   12   45 1
    32   13   18 1
    33   13   14 2
    34   14   15 1
    35   14   46 1
    36   15   16 1
    37   15   47 1
    38   15   48 1
    39   16   17 1
    40   16   20 1
    41   16   49 1
    42   17   18 1
    43   18   19 1
    44   18   50 1
    45   19   51 1
    46   20   25 1
    47   20   21 2
    48   21   22 1
    49   21   52 1
    50   22   23 2
    51   22   24 1
    52   24   25 1
    53   25   26 1
    54   25   53 1
    55   26   54 1
    56   27   55 1
    57   27   56 1
    58   27   57 1
    59   28   58 1
    60   28   59 1
    61   28   60 1
    62   29   61 1
    63   29   62 1
    64   29   63 1
@<TRIPOS>MOLECULE
CHEMBL109073__2
   63    64     0     0     0
SMALL
USER_CHARGES

@<TRIPOS>ATOM
      1 C1          0.0972    1.2316   -0.1039 C.3       1 <0>        -0.1188
      2 C2          0.4260   -0.2373   -0.0321 C.2       1 <0>        -0.1325
      3 C3          0.6798   -0.7959    1.1253 C.2       1 <0>        -0.1698
      4 C4          0.5293    0.0008    2.3956 C.3       1 <0>        -0.0866
      5 C5         -0.4057   -0.7395    3.3541 C.3       1 <0>        -0.0772
      6 C6         -0.5562    0.0572    4.6244 C.2       1 <0>        -0.1263
      7 C7         -1.5682    0.8767    4.7676 C.2       1 <0>        -0.1625
      8 C8         -1.7711    1.6025    6.0726 C.3       1 <0>        -0.0881
      9 C9         -1.8703    3.1065    5.8095 C.3       1 <0>        -0.0780
     10 C10        -2.0733    3.8324    7.1145 C.2       1 <0>        -0.1179
     11 C11        -1.0440    4.3292    7.7547 C.2       1 <0>        -0.1643
     12 C12        -1.2294    4.9430    9.1185 C.3       1 <0>        -0.0568
     13 C13        -0.2872    4.2890   10.0960 C.2       1 <0>        -0.1343
     14 C14         0.8567    4.8592   10.3330 C.2       1 <0>        -0.1360
     15 C15         1.8596    4.2888   11.2976 C.3       1 <0>        -0.1207
     16 C16         1.5185    2.8243   11.5870 C.3       1 <0>         0.1596
     17 O1          0.1196    2.7366   11.8853 O.3       1 <0>        -0.3819
     18 C17        -0.7133    3.0099   10.7586 C.3       1 <0>         0.3111
     19 O2         -2.0714    3.1280   11.1871 O.3       1 <0>        -0.5325
     20 C18         2.3205    2.3400   12.7673 C.2       1 <0>        -0.0744
     21 C19         3.2623    1.3991   12.7544 C.2       1 <0>        -0.1922
     22 C20         3.7918    1.2344   14.1116 C.2       1 <0>         0.5045
     23 O3          4.6648    0.4516   14.4311 O.2       1 <0>        -0.4373
     24 O4          3.1665    2.0809   14.9504 O.3       1 <0>        -0.3422
     25 C21         2.2150    2.8336   14.1910 C.3       1 <0>         0.2756
     26 O5          0.8974    2.6027   14.6938 O.3       1 <0>        -0.5211
     27 C22        -3.4604    3.9868    7.6830 C.3       1 <0>        -0.1210
     28 C23         0.4574   -0.0888    5.7300 C.3       1 <0>        -0.1214
     29 C24         0.4628   -1.0637   -1.2918 C.3       1 <0>        -0.1189
     30 H1          0.8926    1.8056    0.3713 H         1 <0>         0.0648
     31 H2          0.0055    1.5328   -1.1475 H         1 <0>         0.0599
     32 H3         -0.8444    1.4188    0.4124 H         1 <0>         0.0660
     33 H4          0.9969   -1.8274    1.1692 H         1 <0>         0.1077
     34 H5          1.5055    0.1255    2.8642 H         1 <0>         0.0684
     35 H6          0.1102    0.9798    2.1630 H         1 <0>         0.0709
     36 H7         -1.3819   -0.8642    2.8856 H         1 <0>         0.0674
     37 H8          0.0134   -1.7185    3.5868 H         1 <0>         0.0689
     38 H9         -2.2570    1.0321    3.9504 H         1 <0>         0.1077
     39 H10        -2.6909    1.2545    6.5427 H         1 <0>         0.0705
     40 H11        -0.9276    1.4042    6.7337 H         1 <0>         0.0725
     41 H12        -0.9505    3.4545    5.3394 H         1 <0>         0.0668
     42 H13        -2.7139    3.3049    5.1484 H         1 <0>         0.0684
     43 H14        -0.0625    4.2988    7.3051 H         1 <0>         0.1069
     44 H15        -1.0172    6.0109    9.0682 H         1 <0>         0.0760
     45 H16        -2.2573    4.7919    9.4481 H         1 <0>         0.0936
     46 H17         1.0961    5.7774    9.8173 H         1 <0>         0.1243
     47 H18         2.8571    4.3499   10.8624 H         1 <0>         0.0937
     48 H19         1.8339    4.8579   12.2268 H         1 <0>         0.0896
     49 H20         1.7463    2.2146   10.7127 H         1 <0>         0.0880
     50 H21        -0.6315    2.1891   10.0460 H         1 <0>         0.0641
     51 H22        -2.4159    2.3375   11.6250 H         1 <0>         0.3899
     52 H23         3.5843    0.8461   11.8843 H         1 <0>         0.1783
     53 H24         2.4527    3.8963   14.2372 H         1 <0>         0.1232
     54 H25         0.7667    2.8986   15.6050 H         1 <0>         0.3951
     55 H26        -3.6492    3.1896    8.4020 H         1 <0>         0.0692
     56 H27        -3.5433    4.9526    8.1814 H         1 <0>         0.0664
     57 H28        -4.1918    3.9299    6.8769 H         1 <0>         0.0608
     58 H29         1.2084    0.6960    5.6404 H         1 <0>         0.0657
     59 H30        -0.0427   -0.0046    6.6949 H         1 <0>         0.0664
     60 H31         0.9395   -1.0635    5.6545 H         1 <0>         0.0603
     61 H32         1.4695   -1.0451   -1.7092 H         1 <0>         0.0655
     62 H33         0.1844   -2.0918   -1.0602 H         1 <0>         0.0618
     63 H34        -0.2389   -0.6519   -2.0171 H         1 <0>         0.0633
@<TRIPOS>BOND
     1    1    2 1
     2    1   30 1
     3    1   31 1
     4    1   32 1
     5    2    3 2
     6    2   29 1
     7    3    4 1
     8    3   33 1
     9    4    5 1
    10    4   34 1
    11    4   35 1
    12    5    6 1
    13    5   36 1
    14    5   37 1
    15    6    7 2
    16    6   28 1
    17    7    8 1
    18    7   38 1
    19    8    9 1
    20    8   39 1
    21    8   40 1
    22    9   10 1
    23    9   41 1
    24    9   42 1
    25   10   11 2
    26   10   27 1
    27   11   12 1
    28   11   43 1
    29   12   13 1
    30   12   44 1
    31   12   45 1
    32   13   18 1
    33   13   14 2
    34   14   15 1
    35   14   46 1
    36   15   16 1
    37   15   47 1
    38   15   48 1
    39   16   17 1
    40   16   20 1
    41   16   49 1
    42   17   18 1
    43   18   19 1
    44   18   50 1
    45   19   51 1
    46   20   25 1
    47   20   21 2
    48   21   22 1
    49   21   52 1
    50   22   23 2
    51   22   24 1
    52   24   25 1
    53   25   26 1
    54   25   53 1
    55   26   54 1
    56   27   55 1
    57   27   56 1
    58   27   57 1
    59   28   58 1
    60   28   59 1
    61   28   60 1
    62   29   61 1
    63   29   62 1
    64   29   63 1
@<TRIPOS>MOLECULE
CHEMBL109073__3
   63    64     0     0     0
SMALL
USER_CHARGES

@<TRIPOS>ATOM
      1 C1          0.0972    1.2316   -0.1039 C.3       1 <0>        -0.1189
      2 C2          0.4260   -0.2373   -0.0321 C.2       1 <0>        -0.1324
      3 C3          0.6798   -0.7959    1.1253 C.2       1 <0>        -0.1698
      4 C4          0.5293    0.0008    2.3956 C.3       1 <0>        -0.0867
      5 C5         -0.4057   -0.7395    3.3541 C.3       1 <0>        -0.0771
      6 C6         -0.5562    0.0572    4.6244 C.2       1 <0>        -0.1263
      7 C7         -1.5682    0.8767    4.7676 C.2       1 <0>        -0.1626
      8 C8         -1.7711    1.6025    6.0726 C.3       1 <0>        -0.0880
      9 C9         -1.8703    3.1065    5.8095 C.3       1 <0>        -0.0779
     10 C10        -2.0733    3.8324    7.1145 C.2       1 <0>        -0.1191
     11 C11        -1.0440    4.3292    7.7547 C.2       1 <0>        -0.1635
     12 C12        -1.2294    4.9430    9.1185 C.3       1 <0>        -0.0558
     13 C13        -0.2872    4.2890   10.0960 C.2       1 <0>        -0.1433
     14 C14         0.8567    4.8592   10.3330 C.2       1 <0>        -0.1283
     15 C15         1.8596    4.2888   11.2976 C.3       1 <0>        -0.1228
     16 C16         1.5185    2.8243   11.5870 C.3       1 <0>         0.1617
     17 O1          0.1196    2.7366   11.8853 O.3       1 <0>        -0.4005
     18 C17        -0.7133    3.0099   10.7586 C.3       1 <0>         0.3154
     19 O2         -2.0714    3.1280   11.1871 O.3       1 <0>        -0.5324
     20 C18         2.3205    2.3400   12.7673 C.2       1 <0>        -0.0724
     21 C19         3.2623    1.3991   12.7544 C.2       1 <0>        -0.1941
     22 C20         3.7918    1.2344   14.1116 C.2       1 <0>         0.5045
     23 O3          4.6648    0.4516   14.4311 O.2       1 <0>        -0.4371
     24 O4          3.1665    2.0809   14.9504 O.3       1 <0>        -0.3413
     25 C21         2.2150    2.8336   14.1910 C.3       1 <0>         0.2770
     26 O5          2.5267    4.2268   14.2515 O.3       1 <0>        -0.5345
     27 C22        -3.4604    3.9868    7.6830 C.3       1 <0>        -0.1206
     28 C23         0.4574   -0.0888    5.7300 C.3       1 <0>        -0.1214
     29 C24         0.4628   -1.0637   -1.2918 C.3       1 <0>        -0.1189
     30 H1          0.8926    1.8056    0.3713 H         1 <0>         0.0649
     31 H2          0.0055    1.5328   -1.1475 H         1 <0>         0.0599
     32 H3         -0.8444    1.4188    0.4124 H         1 <0>         0.0660
     33 H4          0.9969   -1.8274    1.1692 H         1 <0>         0.1077
     34 H5          1.5055    0.1255    2.8642 H         1 <0>         0.0685
     35 H6          0.1102    0.9798    2.1630 H         1 <0>         0.0710
     36 H7         -1.3819   -0.8642    2.8856 H         1 <0>         0.0674
     37 H8          0.0134   -1.7185    3.5868 H         1 <0>         0.0689
     38 H9         -2.2570    1.0321    3.9504 H         1 <0>         0.1077
     39 H10        -2.6909    1.2545    6.5427 H         1 <0>         0.0703
     40 H11        -0.9276    1.4042    6.7337 H         1 <0>         0.0724
     41 H12        -0.9505    3.4545    5.3394 H         1 <0>         0.0668
     42 H13        -2.7139    3.3049    5.1484 H         1 <0>         0.0683
     43 H14        -0.0625    4.2988    7.3051 H         1 <0>         0.1068
     44 H15        -1.0172    6.0109    9.0682 H         1 <0>         0.0759
     45 H16        -2.2573    4.7919    9.4481 H         1 <0>         0.0927
     46 H17         1.0961    5.7774    9.8173 H         1 <0>         0.1236
     47 H18         2.8571    4.3499   10.8624 H         1 <0>         0.0906
     48 H19         1.8339    4.8579   12.2268 H         1 <0>         0.1088
     49 H20         1.7463    2.2146   10.7127 H         1 <0>         0.0876
     50 H21        -0.6315    2.1891   10.0460 H         1 <0>         0.0659
     51 H22        -2.4159    2.3375   11.6250 H         1 <0>         0.3888
     52 H23         3.5843    0.8461   11.8843 H         1 <0>         0.1784
     53 H24         1.2100    2.6575   14.5745 H         1 <0>         0.1297
     54 H25         2.4763    4.6029   15.1410 H         1 <0>         0.3996
     55 H26        -3.6492    3.1896    8.4020 H         1 <0>         0.0687
     56 H27        -3.5433    4.9526    8.1814 H         1 <0>         0.0664
     57 H28        -4.1918    3.9299    6.8769 H         1 <0>         0.0606
     58 H29         1.2084    0.6960    5.6404 H         1 <0>         0.0658
     59 H30        -0.0427   -0.0046    6.6949 H         1 <0>         0.0663
     60 H31         0.9395   -1.0635    5.6545 H         1 <0>         0.0603
     61 H32         1.4695   -1.0451   -1.7092 H         1 <0>         0.0655
     62 H33         0.1844   -2.0918   -1.0602 H         1 <0>         0.0618
     63 H34        -0.2389   -0.6519   -2.0171 H         1 <0>         0.0633
@<TRIPOS>BOND
     1    1    2 1
     2    1   30 1
     3    1   31 1
     4    1   32 1
     5    2    3 2
     6    2   29 1
     7    3    4 1
     8    3   33 1
     9    4    5 1
    10    4   34 1
    11    4   35 1
    12    5    6 1
    13    5   36 1
    14    5   37 1
    15    6    7 2
    16    6   28 1
    17    7    8 1
    18    7   38 1
    19    8    9 1
    20    8   39 1
    21    8   40 1
    22    9   10 1
    23    9   41 1
    24    9   42 1
    25   10   11 2
    26   10   27 1
    27   11   12 1
    28   11   43 1
    29   12   13 1
    30   12   44 1
    31   12   45 1
    32   13   18 1
    33   13   14 2
    34   14   15 1
    35   14   46 1
    36   15   16 1
    37   15   47 1
    38   15   48 1
    39   16   17 1
    40   16   20 1
    41   16   49 1
    42   17   18 1
    43   18   19 1
    44   18   50 1
    45   19   51 1
    46   20   25 1
    47   20   21 2
    48   21   22 1
    49   21   52 1
    50   22   23 2
    51   22   24 1
    52   24   25 1
    53   25   26 1
    54   25   53 1
    55   26   54 1
    56   27   55 1
    57   27   56 1
    58   27   57 1
    59   28   58 1
    60   28   59 1
    61   28   60 1
    62   29   61 1
    63   29   62 1
    64   29   63 1
@<TRIPOS>MOLECULE
CHEMBL109073__4
   63    64     0     0     0
SMALL
USER_CHARGES

@<TRIPOS>ATOM
      1 C1          0.0969    1.2239   -0.1049 C.3       1 <0>        -0.1186
      2 C2          0.4217   -0.2460   -0.0345 C.2       1 <0>        -0.1334
      3 C3          0.6737   -0.8064    1.1224 C.2       1 <0>        -0.1689
      4 C4          0.5248   -0.0107    2.3935 C.3       1 <0>        -0.0868
      5 C5         -0.4120   -0.7498    3.3511 C.3       1 <0>        -0.0766
      6 C6         -0.5608    0.0460    4.6222 C.2       1 <0>        -0.1279
      7 C7         -1.5709    0.8677    4.7661 C.2       1 <0>        -0.1624
      8 C8         -1.7723    1.5927    6.0718 C.3       1 <0>        -0.0851
      9 C9         -1.8683    3.0972    5.8102 C.3       1 <0>        -0.0749
     10 C10        -2.0697    3.8222    7.1159 C.2       1 <0>        -0.1150
     11 C11        -1.0394    4.3161    7.7566 C.2       1 <0>        -0.1463
     12 C12        -1.2235    4.9290    9.1210 C.3       1 <0>        -0.0488
     13 C13        -0.2809    4.2738   10.0974 C.2       1 <0>        -0.1450
     14 C14         0.8634    4.8432   10.3340 C.2       1 <0>        -0.1276
     15 C15         1.8742    4.2622   11.2838 C.3       1 <0>        -0.1224
     16 C16         1.1986    3.2179   12.1771 C.3       1 <0>         0.1605
     17 O1          0.4243    2.3448   11.3455 O.3       1 <0>        -0.3989
     18 C17        -0.7073    2.9944   10.7593 C.3       1 <0>         0.3132
     19 O2         -1.2940    2.1295    9.7847 O.3       1 <0>        -0.5225
     20 C18         2.2476    2.4223   12.9104 C.2       1 <0>        -0.0722
     21 C19         2.4474    2.3958   14.2264 C.2       1 <0>        -0.1947
     22 C20         3.5657    1.4948   14.5217 C.2       1 <0>         0.5044
     23 O3          3.9949    1.2544   15.6330 O.2       1 <0>        -0.4373
     24 O4          4.0450    0.9733   13.3774 O.3       1 <0>        -0.3415
     25 C21         3.2699    1.4968   12.2941 C.3       1 <0>         0.2773
     26 O5          4.1127    2.2239   11.3980 O.3       1 <0>        -0.5346
     27 C22        -3.4565    3.9790    7.6846 C.3       1 <0>        -0.1171
     28 C23         0.4522   -0.1036    5.7278 C.3       1 <0>        -0.1200
     29 C24         0.4568   -1.0711   -1.2951 C.3       1 <0>        -0.1186
     30 H1          0.8937    1.7953    0.3713 H         1 <0>         0.0648
     31 H2          0.0063    1.5265   -1.1481 H         1 <0>         0.0596
     32 H3         -0.8443    1.4131    0.4113 H         1 <0>         0.0660
     33 H4          0.9881   -1.8388    1.1653 H         1 <0>         0.1075
     34 H5          1.5013    0.1112    2.8623 H         1 <0>         0.0685
     35 H6          0.1082    0.9695    2.1618 H         1 <0>         0.0708
     36 H7         -1.3885   -0.8716    2.8823 H         1 <0>         0.0665
     37 H8          0.0047   -1.7300    3.5828 H         1 <0>         0.0682
     38 H9         -2.2592    1.0256    3.9490 H         1 <0>         0.1053
     39 H10        -2.6928    1.2462    6.5415 H         1 <0>         0.0683
     40 H11        -0.9292    1.3919    6.7327 H         1 <0>         0.0786
     41 H12        -0.9478    3.4437    5.3405 H         1 <0>         0.0636
     42 H13        -2.7114    3.2980    5.1493 H         1 <0>         0.0638
     43 H14        -0.0579    4.2841    7.3070 H         1 <0>         0.1026
     44 H15        -1.0108    5.9969    9.0713 H         1 <0>         0.0733
     45 H16        -2.2513    4.7782    9.4513 H         1 <0>         0.0799
     46 H17         1.0973    5.7688    9.8290 H         1 <0>         0.1230
     47 H18         2.6761    3.7900   10.7162 H         1 <0>         0.1083
     48 H19         2.2884    5.0571   11.9040 H         1 <0>         0.0900
     49 H20         0.5463    3.7155   12.8947 H         1 <0>         0.0875
     50 H21        -1.4427    3.2154   11.5328 H         1 <0>         0.0653
     51 H22        -1.5938    1.2819   10.1407 H         1 <0>         0.3843
     52 H23         1.8777    2.9489   14.9584 H         1 <0>         0.1784
     53 H24         2.7694    0.6867   11.7635 H         1 <0>         0.1297
     54 H25         4.7908    1.6834   10.9700 H         1 <0>         0.3993
     55 H26        -3.6470    3.1814    8.4027 H         1 <0>         0.0679
     56 H27        -3.5374    4.9445    8.1839 H         1 <0>         0.0613
     57 H28        -4.1881    3.9244    6.8784 H         1 <0>         0.0577
     58 H29         1.2052    0.6795    5.6390 H         1 <0>         0.0646
     59 H30        -0.0478   -0.0191    6.6927 H         1 <0>         0.0693
     60 H31         0.9320   -1.0793    5.6514 H         1 <0>         0.0579
     61 H32         1.4637   -1.0547   -1.7122 H         1 <0>         0.0652
     62 H33         0.1756   -2.0987   -1.0646 H         1 <0>         0.0616
     63 H34        -0.2436   -0.6566   -2.0202 H         1 <0>         0.0631
@<TRIPOS>BOND
     1    1    2 1
     2    1   30 1
     3    1   31 1
     4    1   32 1
     5    2    3 2
     6    2   29 1
     7    3    4 1
     8    3   33 1
     9    4    5 1
    10    4   34 1
    11    4   35 1
    12    5    6 1
    13    5   36 1
    14    5   37 1
    15    6    7 2
    16    6   28 1
    17    7    8 1
    18    7   38 1
    19    8    9 1
    20    8   39 1
    21    8   40 1
    22    9   10 1
    23    9   41 1
    24    9   42 1
    25   10   11 2
    26   10   27 1
    27   11   12 1
    28   11   43 1
    29   12   13 1
    30   12   44 1
    31   12   45 1
    32   13   18 1
    33   13   14 2
    34   14   15 1
    35   14   46 1
    36   15   16 1
    37   15   47 1
    38   15   48 1
    39   16   17 1
    40   16   20 1
    41   16   49 1
    42   17   18 1
    43   18   19 1
    44   18   50 1
    45   19   51 1
    46   20   25 1
    47   20   21 2
    48   21   22 1
    49   21   52 1
    50   22   23 2
    51   22   24 1
    52   24   25 1
    53   25   26 1
    54   25   53 1
    55   26   54 1
    56   27   55 1
    57   27   56 1
    58   27   57 1
    59   28   58 1
    60   28   59 1
    61   28   60 1
    62   29   61 1
    63   29   62 1
    64   29   63 1
@<TRIPOS>MOLECULE
CHEMBL109073__5
   63    64     0     0     0
SMALL
USER_CHARGES

@<TRIPOS>ATOM
      1 C1          0.0969    1.2239   -0.1049 C.3       1 <0>        -0.1186
      2 C2          0.4217   -0.2460   -0.0345 C.2       1 <0>        -0.1336
      3 C3          0.6737   -0.8064    1.1224 C.2       1 <0>        -0.1687
      4 C4          0.5248   -0.0107    2.3935 C.3       1 <0>        -0.0868
      5 C5         -0.4120   -0.7498    3.3511 C.3       1 <0>        -0.0766
      6 C6         -0.5608    0.0460    4.6222 C.2       1 <0>        -0.1277
      7 C7         -1.5709    0.8677    4.7661 C.2       1 <0>        -0.1626
      8 C8         -1.7723    1.5927    6.0718 C.3       1 <0>        -0.0853
      9 C9         -1.8683    3.0972    5.8102 C.3       1 <0>        -0.0748
     10 C10        -2.0697    3.8222    7.1159 C.2       1 <0>        -0.1136
     11 C11        -1.0394    4.3161    7.7566 C.2       1 <0>        -0.1471
     12 C12        -1.2235    4.9290    9.1210 C.3       1 <0>        -0.0497
     13 C13        -0.2809    4.2738   10.0974 C.2       1 <0>        -0.1360
     14 C14         0.8634    4.8432   10.3340 C.2       1 <0>        -0.1353
     15 C15         1.8742    4.2622   11.2838 C.3       1 <0>        -0.1202
     16 C16         1.1986    3.2179   12.1771 C.3       1 <0>         0.1584
     17 O1          0.4243    2.3448   11.3455 O.3       1 <0>        -0.3801
     18 C17        -0.7073    2.9944   10.7593 C.3       1 <0>         0.3086
     19 O2         -1.2940    2.1295    9.7847 O.3       1 <0>        -0.5225
     20 C18         2.2476    2.4223   12.9104 C.2       1 <0>        -0.0742
     21 C19         2.4474    2.3958   14.2264 C.2       1 <0>        -0.1923
     22 C20         3.5657    1.4948   14.5217 C.2       1 <0>         0.5042
     23 O3          3.9949    1.2544   15.6330 O.2       1 <0>        -0.4374
     24 O4          4.0450    0.9733   13.3774 O.3       1 <0>        -0.3423
     25 C21         3.2699    1.4968   12.2941 C.3       1 <0>         0.2757
     26 O5          2.6138    0.4348   11.5985 O.3       1 <0>        -0.5205
     27 C22        -3.4565    3.9790    7.6846 C.3       1 <0>        -0.1175
     28 C23         0.4522   -0.1036    5.7278 C.3       1 <0>        -0.1198
     29 C24         0.4568   -1.0711   -1.2951 C.3       1 <0>        -0.1185
     30 H1          0.8937    1.7953    0.3713 H         1 <0>         0.0647
     31 H2          0.0063    1.5265   -1.1481 H         1 <0>         0.0595
     32 H3         -0.8443    1.4131    0.4113 H         1 <0>         0.0660
     33 H4          0.9881   -1.8388    1.1653 H         1 <0>         0.1075
     34 H5          1.5013    0.1112    2.8623 H         1 <0>         0.0685
     35 H6          0.1082    0.9695    2.1618 H         1 <0>         0.0707
     36 H7         -1.3885   -0.8716    2.8823 H         1 <0>         0.0664
     37 H8          0.0047   -1.7300    3.5828 H         1 <0>         0.0682
     38 H9         -2.2592    1.0256    3.9490 H         1 <0>         0.1051
     39 H10        -2.6928    1.2462    6.5415 H         1 <0>         0.0684
     40 H11        -0.9292    1.3919    6.7327 H         1 <0>         0.0791
     41 H12        -0.9478    3.4437    5.3405 H         1 <0>         0.0635
     42 H13        -2.7114    3.2980    5.1493 H         1 <0>         0.0637
     43 H14        -0.0579    4.2841    7.3070 H         1 <0>         0.1024
     44 H15        -1.0108    5.9969    9.0713 H         1 <0>         0.0734
     45 H16        -2.2513    4.7782    9.4513 H         1 <0>         0.0805
     46 H17         1.0973    5.7688    9.8290 H         1 <0>         0.1236
     47 H18         2.6761    3.7900   10.7162 H         1 <0>         0.0890
     48 H19         2.2884    5.0571   11.9040 H         1 <0>         0.0931
     49 H20         0.5463    3.7155   12.8947 H         1 <0>         0.0878
     50 H21        -1.4427    3.2154   11.5328 H         1 <0>         0.0634
     51 H22        -1.5938    1.2819   10.1407 H         1 <0>         0.3854
     52 H23         1.8777    2.9489   14.9584 H         1 <0>         0.1783
     53 H24         3.9128    2.0514   11.6106 H         1 <0>         0.1222
     54 H25         3.2180   -0.1939   11.1805 H         1 <0>         0.3948
     55 H26        -3.6470    3.1814    8.4027 H         1 <0>         0.0684
     56 H27        -3.5374    4.9445    8.1839 H         1 <0>         0.0612
     57 H28        -4.1881    3.9244    6.8784 H         1 <0>         0.0578
     58 H29         1.2052    0.6795    5.6390 H         1 <0>         0.0641
     59 H30        -0.0478   -0.0191    6.6927 H         1 <0>         0.0701
     60 H31         0.9320   -1.0793    5.6514 H         1 <0>         0.0579
     61 H32         1.4637   -1.0547   -1.7122 H         1 <0>         0.0652
     62 H33         0.1756   -2.0987   -1.0646 H         1 <0>         0.0616
     63 H34        -0.2436   -0.6566   -2.0202 H         1 <0>         0.0630
@<TRIPOS>BOND
     1    1    2 1
     2    1   30 1
     3    1   31 1
     4    1   32 1
     5    2    3 2
     6    2   29 1
     7    3    4 1
     8    3   33 1
     9    4    5 1
    10    4   34 1
    11    4   35 1
    12    5    6 1
    13    5   36 1
    14    5   37 1
    15    6    7 2
    16    6   28 1
    17    7    8 1
    18    7   38 1
    19    8    9 1
    20    8   39 1
    21    8   40 1
    22    9   10 1
    23    9   41 1
    24    9   42 1
    25   10   11 2
    26   10   27 1
    27   11   12 1
    28   11   43 1
    29   12   13 1
    30   12   44 1
    31   12   45 1
    32   13   18 1
    33   13   14 2
    34   14   15 1
    35   14   46 1
    36   15   16 1
    37   15   47 1
    38   15   48 1
    39   16   17 1
    40   16   20 1
    41   16   49 1
    42   17   18 1
    43   18   19 1
    44   18   50 1
    45   19   51 1
    46   20   25 1
    47   20   21 2
    48   21   22 1
    49   21   52 1
    50   22   23 2
    51   22   24 1
    52   24   25 1
    53   25   26 1
    54   25   53 1
    55   26   54 1
    56   27   55 1
    57   27   56 1
    58   27   57 1
    59   28   58 1
    60   28   59 1
    61   28   60 1
    62   29   61 1
    63   29   62 1
    64   29   63 1
@<TRIPOS>MOLECULE
CHEMBL109073__6
   63    64     0     0     0
SMALL
USER_CHARGES

@<TRIPOS>ATOM
      1 C1          0.0966    1.2336   -0.1038 C.3       1 <0>        -0.1188
      2 C2          0.4260   -0.2352   -0.0318 C.2       1 <0>        -0.1326
      3 C3          0.6801   -0.7936    1.1257 C.2       1 <0>        -0.1697
      4 C4          0.5293    0.0033    2.3959 C.3       1 <0>        -0.0867
      5 C5         -0.4053   -0.7373    3.3546 C.3       1 <0>        -0.0772
      6 C6         -0.5561    0.0595    4.6248 C.2       1 <0>        -0.1255
      7 C7         -1.5684    0.8787    4.7679 C.2       1 <0>        -0.1634
      8 C8         -1.7716    1.6047    6.0727 C.3       1 <0>        -0.0888
      9 C9         -1.8713    3.1085    5.8095 C.3       1 <0>        -0.0776
     10 C10        -2.0745    3.8345    7.1144 C.2       1 <0>        -0.1218
     11 C11        -1.0454    4.3317    7.7545 C.2       1 <0>        -0.1611
     12 C12        -1.2310    4.9458    9.1181 C.3       1 <0>        -0.0563
     13 C13        -0.2887    4.2922   10.0959 C.2       1 <0>        -0.1432
     14 C14         0.8550    4.8625   10.3329 C.2       1 <0>        -0.1190
     15 C15         1.8655    4.2830   11.2840 C.3       1 <0>        -0.1217
     16 C16         1.1899    3.2392   12.1778 C.3       1 <0>         0.1472
     17 O1          0.4168    2.3647   11.3464 O.3       1 <0>        -0.3853
     18 C17        -0.7148    3.0130   10.7586 C.3       1 <0>         0.3014
     19 O2         -1.6799    3.3031   11.7717 O.3       1 <0>        -0.5691
     20 C18         2.2388    2.4449   12.9127 C.2       1 <0>        -0.0714
     21 C19         2.4376    2.4198   14.2288 C.2       1 <0>        -0.1964
     22 C20         3.5562    1.5197   14.5258 C.2       1 <0>         0.5045
     23 O3          3.9847    1.2807   15.6377 O.2       1 <0>        -0.4379
     24 O4          4.0367    0.9975   13.3824 O.3       1 <0>        -0.3420
     25 C21         3.2621    1.5195   12.2980 C.3       1 <0>         0.2765
     26 O5          4.1052    2.2463   11.4019 O.3       1 <0>        -0.5349
     27 C22        -3.4616    3.9885    7.6829 C.3       1 <0>        -0.1222
     28 C23         0.4575   -0.0860    5.7304 C.3       1 <0>        -0.1214
     29 C24         0.4631   -1.0618   -1.2914 C.3       1 <0>        -0.1189
     30 H1          0.8918    1.8080    0.3714 H         1 <0>         0.0649
     31 H2          0.0047    1.5346   -1.1474 H         1 <0>         0.0598
     32 H3         -0.8450    1.4205    0.4125 H         1 <0>         0.0659
     33 H4          0.9976   -1.8249    1.1697 H         1 <0>         0.1077
     34 H5          1.5055    0.1283    2.8644 H         1 <0>         0.0686
     35 H6          0.1099    0.9820    2.1632 H         1 <0>         0.0709
     36 H7         -1.3815   -0.8624    2.8861 H         1 <0>         0.0672
     37 H8          0.0141   -1.7160    3.5873 H         1 <0>         0.0689
     38 H9         -2.2573    1.0337    3.9507 H         1 <0>         0.1074
     39 H10        -2.6912    1.2563    6.5429 H         1 <0>         0.0698
     40 H11        -0.9279    1.4067    6.7339 H         1 <0>         0.0741
     41 H12        -0.9517    3.4568    5.3393 H         1 <0>         0.0674
     42 H13        -2.7150    3.3065    5.1484 H         1 <0>         0.0682
     43 H14        -0.0638    4.3016    7.3049 H         1 <0>         0.1092
     44 H15        -1.0189    6.0137    9.0677 H         1 <0>         0.0792
     45 H16        -2.2589    4.7946    9.4477 H         1 <0>         0.0856
     46 H17         1.0886    5.7878    9.8272 H         1 <0>         0.1230
     47 H18         2.6681    3.8109   10.7175 H         1 <0>         0.1079
     48 H19         2.2786    5.0788   11.9038 H         1 <0>         0.0903
     49 H20         0.5366    3.7370   12.8944 H         1 <0>         0.0939
     50 H21        -1.1613    2.3523   10.0155 H         1 <0>         0.1105
     51 H22        -2.0015    2.5226   12.2436 H         1 <0>         0.3869
     52 H23         1.8669    2.9732   14.9599 H         1 <0>         0.1780
     53 H24         2.7627    0.7086   11.7678 H         1 <0>         0.1293
     54 H25         4.7840    1.7059   10.9750 H         1 <0>         0.3988
     55 H26        -3.6501    3.1913    8.4020 H         1 <0>         0.0660
     56 H27        -3.5449    4.9544    8.1811 H         1 <0>         0.0669
     57 H28        -4.1931    3.9312    6.8768 H         1 <0>         0.0628
     58 H29         1.2083    0.6991    5.6406 H         1 <0>         0.0662
     59 H30        -0.0426   -0.0018    6.6952 H         1 <0>         0.0673
     60 H31         0.9401   -1.0604    5.6550 H         1 <0>         0.0599
     61 H32         1.4698   -1.0429   -1.7088 H         1 <0>         0.0655
     62 H33         0.1851   -2.0899   -1.0596 H         1 <0>         0.0618
     63 H34        -0.2388   -0.6503   -2.0167 H         1 <0>         0.0632
@<TRIPOS>BOND
     1    1    2 1
     2    1   30 1
     3    1   31 1
     4    1   32 1
     5    2    3 2
     6    2   29 1
     7    3    4 1
     8    3   33 1
     9    4    5 1
    10    4   34 1
    11    4   35 1
    12    5    6 1
    13    5   36 1
    14    5   37 1
    15    6    7 2
    16    6   28 1
    17    7    8 1
    18    7   38 1
    19    8    9 1
    20    8   39 1
    21    8   40 1
    22    9   10 1
    23    9   41 1
    24    9   42 1
    25   10   11 2
    26   10   27 1
    27   11   12 1
    28   11   43 1
    29   12   13 1
    30   12   44 1
    31   12   45 1
    32   13   18 1
    33   13   14 2
    34   14   15 1
    35   14   46 1
    36   15   16 1
    37   15   47 1
    38   15   48 1
    39   16   17 1
    40   16   20 1
    41   16   49 1
    42   17   18 1
    43   18   19 1
    44   18   50 1
    45   19   51 1
    46   20   25 1
    47   20   21 2
    48   21   22 1
    49   21   52 1
    50   22   23 2
    51   22   24 1
    52   24   25 1
    53   25   26 1
    54   25   53 1
    55   26   54 1
    56   27   55 1
    57   27   56 1
    58   27   57 1
    59   28   58 1
    60   28   59 1
    61   28   60 1
    62   29   61 1
    63   29   62 1
    64   29   63 1
@<TRIPOS>MOLECULE
CHEMBL109073__7
   63    64     0     0     0
SMALL
USER_CHARGES

@<TRIPOS>ATOM
      1 C1          0.0966    1.2336   -0.1038 C.3       1 <0>        -0.1187
      2 C2          0.4260   -0.2352   -0.0318 C.2       1 <0>        -0.1328
      3 C3          0.6801   -0.7936    1.1257 C.2       1 <0>        -0.1695
      4 C4          0.5293    0.0033    2.3959 C.3       1 <0>        -0.0866
      5 C5         -0.4053   -0.7373    3.3546 C.3       1 <0>        -0.0772
      6 C6         -0.5561    0.0595    4.6248 C.2       1 <0>        -0.1253
      7 C7         -1.5684    0.8787    4.7679 C.2       1 <0>        -0.1635
      8 C8         -1.7716    1.6047    6.0727 C.3       1 <0>        -0.0890
      9 C9         -1.8713    3.1085    5.8095 C.3       1 <0>        -0.0776
     10 C10        -2.0745    3.8345    7.1144 C.2       1 <0>        -0.1203
     11 C11        -1.0454    4.3317    7.7545 C.2       1 <0>        -0.1620
     12 C12        -1.2310    4.9458    9.1181 C.3       1 <0>        -0.0572
     13 C13        -0.2887    4.2922   10.0959 C.2       1 <0>        -0.1341
     14 C14         0.8550    4.8625   10.3329 C.2       1 <0>        -0.1265
     15 C15         1.8655    4.2830   11.2840 C.3       1 <0>        -0.1198
     16 C16         1.1899    3.2392   12.1778 C.3       1 <0>         0.1452
     17 O1          0.4168    2.3647   11.3464 O.3       1 <0>        -0.3665
     18 C17        -0.7148    3.0130   10.7586 C.3       1 <0>         0.2967
     19 O2         -1.6799    3.3031   11.7717 O.3       1 <0>        -0.5708
     20 C18         2.2388    2.4449   12.9127 C.2       1 <0>        -0.0733
     21 C19         2.4376    2.4198   14.2288 C.2       1 <0>        -0.1942
     22 C20         3.5562    1.5197   14.5258 C.2       1 <0>         0.5043
     23 O3          3.9847    1.2807   15.6377 O.2       1 <0>        -0.4379
     24 O4          4.0367    0.9975   13.3824 O.3       1 <0>        -0.3427
     25 C21         3.2621    1.5195   12.2980 C.3       1 <0>         0.2751
     26 O5          2.6073    0.4564   11.6029 O.3       1 <0>        -0.5216
     27 C22        -3.4616    3.9885    7.6829 C.3       1 <0>        -0.1226
     28 C23         0.4575   -0.0860    5.7304 C.3       1 <0>        -0.1213
     29 C24         0.4631   -1.0618   -1.2914 C.3       1 <0>        -0.1188
     30 H1          0.8918    1.8080    0.3714 H         1 <0>         0.0648
     31 H2          0.0047    1.5346   -1.1474 H         1 <0>         0.0598
     32 H3         -0.8450    1.4205    0.4125 H         1 <0>         0.0659
     33 H4          0.9976   -1.8249    1.1697 H         1 <0>         0.1077
     34 H5          1.5055    0.1283    2.8644 H         1 <0>         0.0686
     35 H6          0.1099    0.9820    2.1632 H         1 <0>         0.0708
     36 H7         -1.3815   -0.8624    2.8861 H         1 <0>         0.0671
     37 H8          0.0141   -1.7160    3.5873 H         1 <0>         0.0690
     38 H9         -2.2573    1.0337    3.9507 H         1 <0>         0.1072
     39 H10        -2.6912    1.2563    6.5429 H         1 <0>         0.0699
     40 H11        -0.9279    1.4067    6.7339 H         1 <0>         0.0746
     41 H12        -0.9517    3.4568    5.3393 H         1 <0>         0.0673
     42 H13        -2.7150    3.3065    5.1484 H         1 <0>         0.0682
     43 H14        -0.0638    4.3016    7.3049 H         1 <0>         0.1090
     44 H15        -1.0189    6.0137    9.0677 H         1 <0>         0.0793
     45 H16        -2.2589    4.7946    9.4477 H         1 <0>         0.0863
     46 H17         1.0886    5.7878    9.8272 H         1 <0>         0.1238
     47 H18         2.6681    3.8109   10.7175 H         1 <0>         0.0886
     48 H19         2.2786    5.0788   11.9038 H         1 <0>         0.0935
     49 H20         0.5366    3.7370   12.8944 H         1 <0>         0.0944
     50 H21        -1.1613    2.3523   10.0155 H         1 <0>         0.1101
     51 H22        -2.0015    2.5226   12.2436 H         1 <0>         0.3877
     52 H23         1.8669    2.9732   14.9599 H         1 <0>         0.1780
     53 H24         3.9052    2.0739   11.6145 H         1 <0>         0.1221
     54 H25         3.2123   -0.1722   11.1859 H         1 <0>         0.3946
     55 H26        -3.6501    3.1913    8.4020 H         1 <0>         0.0665
     56 H27        -3.5449    4.9544    8.1811 H         1 <0>         0.0669
     57 H28        -4.1931    3.9312    6.8768 H         1 <0>         0.0629
     58 H29         1.2083    0.6991    5.6406 H         1 <0>         0.0657
     59 H30        -0.0426   -0.0018    6.6952 H         1 <0>         0.0680
     60 H31         0.9401   -1.0604    5.6550 H         1 <0>         0.0599
     61 H32         1.4698   -1.0429   -1.7088 H         1 <0>         0.0654
     62 H33         0.1851   -2.0899   -1.0596 H         1 <0>         0.0618
     63 H34        -0.2388   -0.6503   -2.0167 H         1 <0>         0.0632
@<TRIPOS>BOND
     1    1    2 1
     2    1   30 1
     3    1   31 1
     4    1   32 1
     5    2    3 2
     6    2   29 1
     7    3    4 1
     8    3   33 1
     9    4    5 1
    10    4   34 1
    11    4   35 1
    12    5    6 1
    13    5   36 1
    14    5   37 1
    15    6    7 2
    16    6   28 1
    17    7    8 1
    18    7   38 1
    19    8    9 1
    20    8   39 1
    21    8   40 1
    22    9   10 1
    23    9   41 1
    24    9   42 1
    25   10   11 2
    26   10   27 1
    27   11   12 1
    28   11   43 1
    29   12   13 1
    30   12   44 1
    31   12   45 1
    32   13   18 1
    33   13   14 2
    34   14   15 1
    35   14   46 1
    36   15   16 1
    37   15   47 1
    38   15   48 1
    39   16   17 1
    40   16   20 1
    41   16   49 1
    42   17   18 1
    43   18   19 1
    44   18   50 1
    45   19   51 1
    46   20   25 1
    47   20   21 2
    48   21   22 1
    49   21   52 1
    50   22   23 2
    51   22   24 1
    52   24   25 1
    53   25   26 1
    54   25   53 1
    55   26   54 1
    56   27   55 1
    57   27   56 1
    58   27   57 1
    59   28   58 1
    60   28   59 1
    61   28   60 1
    62   29   61 1
    63   29   62 1
    64   29   63 1
@<TRIPOS>MOLECULE
CHEMBL146267
   44    47     0     0     0
SMALL
USER_CHARGES

@<TRIPOS>ATOM
      1 C1          0.4123    1.6449   -0.4128 C.ar      1 <0>        -0.1103
      2 C2          1.6665    2.2259   -0.3952 C.ar      1 <0>        -0.1197
      3 C3          2.7943    1.4328   -0.2953 C.ar      1 <0>        -0.0988
      4 C4          2.6678    0.0588   -0.2127 C.ar      1 <0>        -0.1139
      5 C5          1.4136   -0.5222   -0.2294 C.ar      1 <0>        -0.0975
      6 C6          0.2859    0.2708   -0.3307 C.ar      1 <0>        -0.1205
      7 C7          3.8974   -0.8059   -0.1048 C.3       1 <0>         0.1498
      8 N1          4.2371   -0.9979    1.3072 N.pl3     1 <0>        -0.4673
      9 C8          5.0669   -0.1768    2.0414 C.ar      1 <0>         0.0985
     10 C9          5.7820    0.9767    1.7367 C.ar      1 <0>        -0.1102
     11 C10         6.5436    1.5905    2.7057 C.ar      1 <0>        -0.1231
     12 C11         6.6071    1.0676    3.9949 C.ar      1 <0>         0.0767
     13 C12         5.9051   -0.0765    4.3171 C.ar      1 <0>        -0.0969
     14 C13         5.1290   -0.7073    3.3421 C.ar      1 <0>        -0.0728
     15 C14         4.2796   -1.9009    3.3343 C.2       1 <0>        -0.1512
     16 C15         3.7737   -2.0150    2.0960 C.2       1 <0>         0.1389
     17 C16         2.8377   -3.1049    1.6410 C.3       1 <0>        -0.1055
     18 C17         3.2244   -4.5493    1.9653 C.3       1 <0>        -0.1606
     19 C18         3.3243   -4.0350    0.5278 C.3       1 <0>        -0.1732
     20 C19         4.0180   -2.8223    4.4977 C.3       1 <0>        -0.0689
     21 C20         2.8203   -2.3302    5.2688 C.2       1 <0>         0.5150
     22 O1          2.2367   -1.3298    4.9090 O.2       1 <0>        -0.5295
     23 N2          2.3978   -3.0019    6.3582 N.am      1 <0>        -0.8620
     24 O2          7.3642    1.6863    4.9401 O.3       1 <0>        -0.4986
     25 H1         -0.4690    2.2648   -0.4863 H         1 <0>         0.1237
     26 H2          1.7652    3.2995   -0.4597 H         1 <0>         0.1243
     27 H3          3.7742    1.8867   -0.2823 H         1 <0>         0.1204
     28 H4          1.3149   -1.5958   -0.1652 H         1 <0>         0.1209
     29 H5         -0.6940   -0.1831   -0.3442 H         1 <0>         0.1238
     30 H6          3.7025   -1.7739   -0.5665 H         1 <0>         0.1002
     31 H7          4.7289   -0.3205   -0.6158 H         1 <0>         0.0946
     32 H8          5.7402    1.3906    0.7400 H         1 <0>         0.1211
     33 H9          7.0971    2.4857    2.4636 H         1 <0>         0.1306
     34 H10         5.9558   -0.4814    5.3170 H         1 <0>         0.1241
     35 H11         1.7777   -2.8515    1.6577 H         1 <0>         0.1212
     36 H12         4.1559   -4.7112    2.5078 H         1 <0>         0.1030
     37 H13         2.4187   -5.2464    2.1956 H         1 <0>         0.1044
     38 H14         2.5843   -4.3937   -0.1876 H         1 <0>         0.1026
     39 H15         4.3214   -3.8585    0.1246 H         1 <0>         0.0974
     40 H16         3.8232   -3.8288    4.1273 H         1 <0>         0.1040
     41 H17         4.8898   -2.8382    5.1517 H         1 <0>         0.0990
     42 H18         2.8646   -3.8021    6.6459 H         1 <0>         0.4002
     43 H19         1.6270   -2.6852    6.8545 H         1 <0>         0.4001
     44 H20         6.8882    2.3579    5.4475 H         1 <0>         0.3860
@<TRIPOS>BOND
     1    1    6 ar
     2    1    2 ar
     3    1   25 1
     4    2    3 ar
     5    2   26 1
     6    3    4 ar
     7    3   27 1
     8    4    5 ar
     9    4    7 1
    10    5    6 ar
    11    5   28 1
    12    6   29 1
    13    7    8 1
    14    7   30 1
    15    7   31 1
    16    8   16 1
    17    8    9 1
    18    9   14 ar
    19    9   10 ar
    20   10   11 ar
    21   10   32 1
    22   11   12 ar
    23   11   33 1
    24   12   13 ar
    25   12   24 1
    26   13   14 ar
    27   13   34 1
    28   14   15 1
    29   15   16 2
    30   15   20 1
    31   16   17 1
    32   17   19 1
    33   17   18 1
    34   17   35 1
    35   18   19 1
    36   18   36 1
    37   18   37 1
    38   19   38 1
    39   19   39 1
    40   20   21 1
    41   20   40 1
    42   20   41 1
    43   21   22 2
    44   21   23 am
    45   23   42 1
    46   23   43 1
    47   24   44 1
@<TRIPOS>MOLECULE
CHEMBL347052
   46    48     0     0     0
SMALL
USER_CHARGES

@<TRIPOS>ATOM
      1 C1         -0.0015    1.4935    0.0845 C.3       1 <0>        -0.1523
      2 C2          0.0116   -0.0364    0.0755 C.3       1 <0>        -0.0670
      3 C3         -1.4046   -0.5507    0.0449 C.2       1 <0>         0.1210
      4 C4         -2.1770   -0.8237    1.1543 C.2       1 <0>        -0.1812
      5 C5         -3.4795   -1.2999    0.6471 C.ar      1 <0>        -0.0929
      6 C6         -3.3847   -1.2747   -0.7513 C.ar      1 <0>         0.1429
      7 N1         -2.1205   -0.8117   -1.0795 N.am      1 <0>        -0.4902
      8 C7         -1.6644   -0.6468   -2.3370 C.2       1 <0>         0.6020
      9 O1         -1.7379    0.4414   -2.8721 O.2       1 <0>        -0.4292
     10 C8         -1.0752   -1.7892   -3.0646 C.ar      1 <0>        -0.1663
     11 C9         -1.0886   -3.0649   -2.4964 C.ar      1 <0>        -0.0541
     12 C10        -0.5370   -4.1273   -3.1816 C.ar      1 <0>        -0.1289
     13 C11         0.0286   -3.9314   -4.4292 C.ar      1 <0>        -0.0785
     14 C12         0.0453   -2.6702   -4.9981 C.ar      1 <0>        -0.1349
     15 C13        -0.5075   -1.5997   -4.3263 C.ar      1 <0>        -0.0520
     16 C14        -4.4739   -1.6751   -1.5166 C.ar      1 <0>        -0.1808
     17 C15        -5.6358   -2.0923   -0.9006 C.ar      1 <0>        -0.0429
     18 C16        -5.7324   -2.1183    0.4809 C.ar      1 <0>        -0.2400
     19 C17        -4.6590   -1.7235    1.2613 C.ar      1 <0>         0.1910
     20 O2         -4.7532   -1.7484    2.6164 O.3       1 <0>        -0.2751
     21 C18        -5.9919   -2.1939    3.1725 C.3       1 <0>        -0.0086
     22 C19        -5.9105   -2.1541    4.6768 C.2       1 <0>         0.5023
     23 O3         -4.8866   -1.7789    5.2221 O.co2     1 <0>        -0.6680
     24 O4         -6.8685   -2.4970    5.3484 O.co2     1 <0>        -0.6869
     25 C20        -1.7837   -0.6725    2.5556 C.2       1 <0>         0.4403
     26 O5         -1.8956    0.4058    3.1052 O.2       1 <0>        -0.4017
     27 C21        -1.2455   -1.8415    3.3095 C.2       1 <0>         0.4996
     28 O6         -1.2185   -2.9383    2.7902 O.2       1 <0>        -0.5067
     29 N2         -0.7892   -1.6801    4.5673 N.am      1 <0>        -0.8232
     30 H1          1.0229    1.8655    0.1066 H         1 <0>         0.0668
     31 H2         -0.5011    1.8579   -0.8131 H         1 <0>         0.0599
     32 H3         -0.5355    1.8471    0.9665 H         1 <0>         0.0689
     33 H4          0.5456   -0.3900   -0.8065 H         1 <0>         0.0773
     34 H5          0.5112   -0.4008    0.9731 H         1 <0>         0.0930
     35 H6         -1.5294   -3.2191   -1.5226 H         1 <0>         0.1364
     36 H7         -0.5463   -5.1143   -2.7433 H         1 <0>         0.1343
     37 H8          0.4594   -4.7668   -4.9612 H         1 <0>         0.1305
     38 H9          0.4887   -2.5242   -5.9720 H         1 <0>         0.1327
     39 H10        -0.4978   -0.6166   -4.7734 H         1 <0>         0.1364
     40 H11        -4.4107   -1.6593   -2.5946 H         1 <0>         0.1180
     41 H12        -6.4783   -2.4013   -1.5014 H         1 <0>         0.1307
     42 H13        -6.6478   -2.4467    0.9506 H         1 <0>         0.1357
     43 H14        -6.7973   -1.5416    2.8348 H         1 <0>         0.0620
     44 H15        -6.1903   -3.2149    2.8463 H         1 <0>         0.0625
     45 H16        -0.8108   -0.8036    4.9823 H         1 <0>         0.4099
     46 H17        -0.4392   -2.4403    5.0576 H         1 <0>         0.4071
@<TRIPOS>BOND
     1    1    2 1
     2    1   30 1
     3    1   31 1
     4    1   32 1
     5    2    3 1
     6    2   33 1
     7    2   34 1
     8    3    7 1
     9    3    4 2
    10    4    5 1
    11    4   25 1
    12    5   19 ar
    13    5    6 ar
    14    6    7 1
    15    6   16 ar
    16    7    8 am
    17    8    9 2
    18    8   10 1
    19   10   15 ar
    20   10   11 ar
    21   11   12 ar
    22   11   35 1
    23   12   13 ar
    24   12   36 1
    25   13   14 ar
    26   13   37 1
    27   14   15 ar
    28   14   38 1
    29   15   39 1
    30   16   17 ar
    31   16   40 1
    32   17   18 ar
    33   17   41 1
    34   18   19 ar
    35   18   42 1
    36   19   20 1
    37   20   21 1
    38   21   22 1
    39   21   43 1
    40   21   44 1
    41   22   23 2
    42   22   24 1
    43   25   26 2
    44   25   27 1
    45   27   28 2
    46   27   29 am
    47   29   45 1
    48   29   46 1
@<TRIPOS>MOLECULE
CHEMBL180576
   68    72     0     0     0
SMALL
USER_CHARGES

@<TRIPOS>ATOM
      1 C1         -0.8377    1.1522   -0.0477 C.3       1 <0>        -0.1049
      2 C2         -0.3612   -0.2761    0.0169 C.2       1 <0>         0.1166
      3 C3         -0.3352   -1.1572   -1.0483 C.2       1 <0>        -0.2109
      4 C4          0.2029   -2.4242   -0.5171 C.ar      1 <0>        -0.0888
      5 C5          0.4718   -3.6753   -1.0744 C.ar      1 <0>         0.1890
      6 C6          0.9854   -4.6757   -0.2736 C.ar      1 <0>        -0.2482
      7 C7          1.2390   -4.4503    1.0782 C.ar      1 <0>        -0.0118
      8 C8          0.9829   -3.2204    1.6336 C.ar      1 <0>        -0.1334
      9 C9          0.4589   -2.1952    0.8396 C.ar      1 <0>         0.1332
     10 N1          0.1099   -0.8883    1.1189 N.pl3     1 <0>        -0.4515
     11 C10         0.2327   -0.2563    2.4349 C.3       1 <0>         0.1308
     12 C11        -1.1189   -0.2144    3.1001 C.ar      1 <0>        -0.1127
     13 C12        -1.8585    0.9534    3.0895 C.ar      1 <0>        -0.1055
     14 C13        -3.0983    0.9919    3.6997 C.ar      1 <0>        -0.1202
     15 C14        -3.5986   -0.1375    4.3200 C.ar      1 <0>        -0.1119
     16 C15        -2.8594   -1.3056    4.3298 C.ar      1 <0>        -0.1174
     17 C16        -1.6215   -1.3453    3.7159 C.ar      1 <0>        -0.1043
     18 C17         1.2518   -2.9118    3.0835 C.3       1 <0>        -0.0883
     19 C18         1.4005   -4.1998    3.8902 C.3       1 <0>        -0.1171
     20 C19         2.4185   -5.0994    3.1794 C.3       1 <0>        -0.1179
     21 C20         1.7919   -5.6006    1.8802 C.3       1 <0>        -0.0781
     22 O1          0.2300   -3.9064   -2.3912 O.3       1 <0>        -0.2711
     23 C21         0.5314   -5.2124   -2.8867 C.3       1 <0>         0.0974
     24 C22         0.2009   -5.2811   -4.3554 C.2       1 <0>         0.4910
     25 O2          0.4049   -6.4257   -5.0400 O.3       1 <0>        -0.7153
     26 N2         -0.2772   -4.2452   -4.9583 N.2       1 <0>        -1.0302
     27 S1         -0.6403   -4.3207   -6.5723 S.o2      1 <0>         2.6409
     28 O3          0.5923   -4.4924   -7.2583 O.2       1 <0>        -1.0056
     29 O4         -1.7191   -5.2362   -6.7034 O.2       1 <0>        -1.0060
     30 C23        -1.2615   -2.7398   -7.0410 C.ar      1 <0>        -0.6246
     31 C24        -2.6154   -2.4754   -6.9528 C.ar      1 <0>        -0.0178
     32 C25        -3.1028   -1.2351   -7.3205 C.ar      1 <0>        -0.1449
     33 C26        -2.2362   -0.2592   -7.7759 C.ar      1 <0>        -0.0833
     34 C27        -0.8821   -0.5234   -7.8633 C.ar      1 <0>        -0.1527
     35 C28        -0.3942   -1.7622   -7.4915 C.ar      1 <0>        -0.0213
     36 C29        -0.7565   -0.8882   -2.4222 C.2       1 <0>         0.4449
     37 O5         -1.9236   -1.0174   -2.7364 O.2       1 <0>        -0.4087
     38 C30         0.2458   -0.4554   -3.4382 C.2       1 <0>         0.4984
     39 O6          1.4251   -0.4235   -3.1523 O.2       1 <0>        -0.5054
     40 N3         -0.1578   -0.0997   -4.6740 N.am      1 <0>        -0.8260
     41 H1          0.0150    1.8129   -0.2039 H         1 <0>         0.0821
     42 H2         -1.5400    1.2639   -0.8738 H         1 <0>         0.0817
     43 H3         -1.3327    1.4127    0.8878 H         1 <0>         0.0795
     44 H4          1.1931   -5.6459   -0.7003 H         1 <0>         0.1313
     45 H5          0.9234   -0.8317    3.0513 H         1 <0>         0.1162
     46 H6          0.6110    0.7591    2.3164 H         1 <0>         0.0950
     47 H7         -1.4675    1.8359    2.6048 H         1 <0>         0.1256
     48 H8         -3.6758    1.9045    3.6920 H         1 <0>         0.1239
     49 H9         -4.5670   -0.1073    4.7974 H         1 <0>         0.1226
     50 H10        -3.2502   -2.1879    4.8148 H         1 <0>         0.1241
     51 H11        -1.0456   -2.2589    3.7203 H         1 <0>         0.1326
     52 H12         2.1705   -2.3305    3.1625 H         1 <0>         0.0681
     53 H13         0.4233   -2.3292    3.4864 H         1 <0>         0.0773
     54 H14         1.7552   -3.9656    4.8940 H         1 <0>         0.0639
     55 H15         0.4386   -4.7091    3.9495 H         1 <0>         0.0656
     56 H16         3.3200   -4.5289    2.9562 H         1 <0>         0.0655
     57 H17         2.6682   -5.9470    3.8176 H         1 <0>         0.0653
     58 H18         0.9854   -6.2953    2.1149 H         1 <0>         0.0768
     59 H19         2.5501   -6.1172    1.2916 H         1 <0>         0.0767
     60 H20         1.5917   -5.4199   -2.7428 H         1 <0>         0.0822
     61 H21        -0.0601   -5.9515   -2.3463 H         1 <0>         0.0818
     62 H22        -3.2925   -3.2378   -6.5969 H         1 <0>         0.1353
     63 H23        -4.1607   -1.0287   -7.2523 H         1 <0>         0.1259
     64 H24        -2.6170    0.7095   -8.0639 H         1 <0>         0.1230
     65 H25        -0.2051    0.2389   -8.2194 H         1 <0>         0.1260
     66 H26         0.6642   -1.9674   -7.5562 H         1 <0>         0.1348
     67 H27        -1.1001   -0.1252   -4.9025 H         1 <0>         0.4070
     68 H28         0.4941    0.1818   -5.3348 H         1 <0>         0.4036
@<TRIPOS>BOND
     1    1    2 1
     2    1   41 1
     3    1   42 1
     4    1   43 1
     5    2   10 1
     6    2    3 2
     7    3    4 1
     8    3   36 1
     9    4    9 ar
    10    4    5 ar
    11    5    6 ar
    12    5   22 1
    13    6    7 ar
    14    6   44 1
    15    7   21 1
    16    7    8 ar
    17    8    9 ar
    18    8   18 1
    19    9   10 1
    20   10   11 1
    21   11   12 1
    22   11   45 1
    23   11   46 1
    24   12   17 ar
    25   12   13 ar
    26   13   14 ar
    27   13   47 1
    28   14   15 ar
    29   14   48 1
    30   15   16 ar
    31   15   49 1
    32   16   17 ar
    33   16   50 1
    34   17   51 1
    35   18   19 1
    36   18   52 1
    37   18   53 1
    38   19   20 1
    39   19   54 1
    40   19   55 1
    41   20   21 1
    42   20   56 1
    43   20   57 1
    44   21   58 1
    45   21   59 1
    46   22   23 1
    47   23   24 1
    48   23   60 1
    49   23   61 1
    50   24   25 1
    51   24   26 2
    52   26   27 1
    53   27   28 2
    54   27   29 2
    55   27   30 1
    56   30   35 ar
    57   30   31 ar
    58   31   32 ar
    59   31   62 1
    60   32   33 ar
    61   32   63 1
    62   33   34 ar
    63   33   64 1
    64   34   35 ar
    65   34   65 1
    66   35   66 1
    67   36   37 2
    68   36   38 1
    69   38   39 2
    70   38   40 am
    71   40   67 1
    72   40   68 1
@<TRIPOS>MOLECULE
CHEMBL347748
   49    51     0     0     0
SMALL
USER_CHARGES

@<TRIPOS>ATOM
      1 C1          0.0373    1.6471    0.0211 C.3       1 <0>        -0.1512
      2 C2          0.0233    0.1181   -0.0315 C.3       1 <0>        -0.0675
      3 C3          0.7319   -0.3481   -1.2772 C.2       1 <0>         0.1245
      4 C4          0.1309   -0.5605   -2.5037 C.2       1 <0>        -0.2190
      5 C5          1.2034   -1.0066   -3.4142 C.ar      1 <0>        -0.0534
      6 C6          1.2418   -1.3718   -4.7567 C.ar      1 <0>         0.0292
      7 C7          2.4381   -1.7512   -5.3267 C.ar      1 <0>        -0.1442
      8 C8          3.5989   -1.7701   -4.5679 C.ar      1 <0>        -0.0617
      9 C9          3.5742   -1.4113   -3.2375 C.ar      1 <0>        -0.1486
     10 C10         2.3768   -1.0246   -2.6445 C.ar      1 <0>         0.1036
     11 N1          2.0471   -0.6157   -1.3672 N.pl3     1 <0>        -0.4576
     12 C11         2.9992   -0.4934   -0.2605 C.3       1 <0>         0.1477
     13 C12         3.0759   -1.8019    0.4832 C.ar      1 <0>        -0.1097
     14 C13         2.2220   -2.0458    1.5426 C.ar      1 <0>        -0.1025
     15 C14         2.2923   -3.2460    2.2248 C.ar      1 <0>        -0.1209
     16 C15         3.2161   -4.2025    1.8473 C.ar      1 <0>        -0.1139
     17 C16         4.0693   -3.9590    0.7873 C.ar      1 <0>        -0.1203
     18 C17         3.9962   -2.7605    0.1024 C.ar      1 <0>        -0.0947
     19 C18         4.8996   -2.1876   -5.2042 C.3       1 <0>        -0.1044
     20 C19        -0.0184   -1.3530   -5.5829 C.3       1 <0>        -0.1597
     21 C20        -0.2391    0.0334   -6.1309 C.2       1 <0>         0.5025
     22 O1          0.5534    0.9237   -5.8743 O.co2     1 <0>        -0.6775
     23 O2         -1.2102    0.2648   -6.8309 O.co2     1 <0>        -0.7022
     24 C21        -1.2822   -0.3802   -2.8326 C.2       1 <0>         0.4261
     25 O3         -1.6785    0.6933   -3.2424 O.2       1 <0>        -0.3873
     26 C22        -2.2375   -1.5136   -2.6653 C.2       1 <0>         0.4880
     27 O4         -1.8614   -2.5564   -2.1709 O.2       1 <0>        -0.5090
     28 N2         -3.5183   -1.3797   -3.0630 N.am      1 <0>        -0.8309
     29 H1          1.0683    2.0008    0.0356 H         1 <0>         0.0564
     30 H2         -0.4712    2.0456   -0.8568 H         1 <0>         0.0677
     31 H3         -0.4752    1.9844    0.9221 H         1 <0>         0.0629
     32 H4          0.5318   -0.2803    0.8464 H         1 <0>         0.0782
     33 H5         -1.0076   -0.2355   -0.0461 H         1 <0>         0.0836
     34 H6          2.4716   -2.0352   -6.3681 H         1 <0>         0.1174
     35 H7          4.4839   -1.4303   -2.6557 H         1 <0>         0.1106
     36 H8          3.9838   -0.2412   -0.6545 H         1 <0>         0.0975
     37 H9          2.6677    0.2918    0.4189 H         1 <0>         0.0965
     38 H10         1.5003   -1.2984    1.8375 H         1 <0>         0.1228
     39 H11         1.6257   -3.4362    3.0529 H         1 <0>         0.1225
     40 H12         3.2715   -5.1400    2.3807 H         1 <0>         0.1212
     41 H13         4.7913   -4.7062    0.4926 H         1 <0>         0.1228
     42 H14         4.6602   -2.5717   -0.7281 H         1 <0>         0.1231
     43 H15         5.3993   -1.3117   -5.6179 H         1 <0>         0.0669
     44 H16         5.5397   -2.6500   -4.4529 H         1 <0>         0.0587
     45 H17         4.7006   -2.9031   -6.0021 H         1 <0>         0.0636
     46 H18         0.0775   -2.0588   -6.4080 H         1 <0>         0.0706
     47 H19        -0.8661   -1.6363   -4.9591 H         1 <0>         0.0550
     48 H20        -3.8188   -0.5464   -3.4581 H         1 <0>         0.4126
     49 H21        -4.1395   -2.1167   -2.9541 H         1 <0>         0.4041
@<TRIPOS>BOND
     1    1    2 1
     2    1   29 1
     3    1   30 1
     4    1   31 1
     5    2    3 1
     6    2   32 1
     7    2   33 1
     8    3   11 1
     9    3    4 2
    10    4    5 1
    11    4   24 1
    12    5   10 ar
    13    5    6 ar
    14    6    7 ar
    15    6   20 1
    16    7    8 ar
    17    7   34 1
    18    8    9 ar
    19    8   19 1
    20    9   10 ar
    21    9   35 1
    22   10   11 1
    23   11   12 1
    24   12   13 1
    25   12   36 1
    26   12   37 1
    27   13   18 ar
    28   13   14 ar
    29   14   15 ar
    30   14   38 1
    31   15   16 ar
    32   15   39 1
    33   16   17 ar
    34   16   40 1
    35   17   18 ar
    36   17   41 1
    37   18   42 1
    38   19   43 1
    39   19   44 1
    40   19   45 1
    41   20   21 1
    42   20   46 1
    43   20   47 1
    44   21   22 2
    45   21   23 1
    46   24   25 2
    47   24   26 1
    48   26   27 2
    49   26   28 am
    50   28   48 1
    51   28   49 1
@<TRIPOS>MOLECULE
CHEMBL169
   80    84     0     0     0
SMALL
USER_CHARGES

@<TRIPOS>ATOM
      1 C1          1.2488    3.5771    4.1207 C.3       1 <0>        -0.1470
      2 C2          1.5131    2.2197    3.4551 C.3       1 <0>        -0.0793
      3 H1          2.3879    2.3125    2.8121 H         1 <0>         0.0745
      4 C3          0.2971    1.8307    2.6342 C.3       1 <0>        -0.0844
      5 C4          0.2907    0.3840    2.1917 C.3       1 <0>        -0.0934
      6 C5          1.4504   -0.4708    2.6572 C.3       1 <0>        -0.0986
      7 C6          1.0554   -1.9500    2.5423 C.3       1 <0>        -0.0919
      8 C7         -0.1317   -2.3138    3.4325 C.3       1 <0>        -0.1019
      9 C8         -0.0173   -1.6960    4.8147 C.3       1 <0>        -0.0031
     10 C9          1.3918   -1.2124    5.0329 C.2       1 <0>        -0.0611
     11 C10         2.1611   -1.6203    5.9967 C.2       1 <0>        -0.1902
     12 C11         1.7551   -2.6591    7.0017 C.3       1 <0>        -0.0740
     13 C12         0.6561   -3.5314    6.3863 C.3       1 <0>        -0.0571
     14 H2          1.0975   -4.0152    5.4874 H         1 <0>         0.0634
     15 C13        -0.4851   -2.6457    5.9227 C.3       1 <0>        -0.0298
     16 C14        -1.6162   -3.5207    5.3926 C.3       1 <0>        -0.1152
     17 C15        -2.1010   -4.4594    6.5032 C.3       1 <0>        -0.1109
     18 C16        -0.9807   -5.4103    6.9221 C.3       1 <0>        -0.0433
     19 H3         -0.7009   -5.9910    6.0153 H         1 <0>         0.0567
     20 C17         0.2671   -4.6526    7.3501 C.3       1 <0>        -0.0273
     21 C18         0.1712   -4.1261    8.7760 C.3       1 <0>        -0.1074
     22 C19        -0.1455   -5.2669    9.7467 C.3       1 <0>        -0.1542
     23 C20        -1.4910   -5.8749    9.3738 C.3       1 <0>         0.1228
     24 H4         -1.7108   -6.7017   10.0620 H         1 <0>         0.0418
     25 C21        -1.4914   -6.4117    7.9476 C.3       1 <0>        -0.0414
     26 C22        -2.9473   -6.8118    7.6158 C.3       1 <0>        -0.1407
     27 C23        -0.6836   -7.7179    7.8956 C.3       1 <0>        -0.1506
     28 O1         -2.5205   -4.8884    9.5173 O.3       1 <0>        -0.5579
     29 C24         1.4731   -5.6297    7.3020 C.3       1 <0>        -0.1616
     30 C25        -1.0226   -1.7553    7.0492 C.3       1 <0>        -0.1514
     31 C26         1.9482   -0.1977    4.0597 C.3       1 <0>        -0.0316
     32 H5          3.0412   -0.3911    4.0235 H         1 <0>         0.0742
     33 C27         1.8143    1.2149    4.5516 C.3       1 <0>        -0.0582
     34 H6          1.0280    1.2662    5.2980 H         1 <0>         0.0589
     35 C28         3.1331    1.6295    5.2134 C.3       1 <0>        -0.1509
     36 C29        -0.9653   -0.4940    4.9062 C.3       1 <0>        -0.1595
     37 C30         2.6116   -0.2564    1.6901 C.2       1 <0>         0.5005
     38 O2          2.4857    0.5041    0.7454 O.co2     1 <0>        -0.6929
     39 O3          3.6651   -0.8455    1.8622 O.co2     1 <0>        -0.6989
     40 H7          2.1164    3.8660    4.7138 H         1 <0>         0.0523
     41 H8          1.0670    4.3291    3.3528 H         1 <0>         0.0474
     42 H9          0.3753    3.5004    4.7681 H         1 <0>         0.0468
     43 H10        -0.6099    2.0350    3.2250 H         1 <0>         0.0388
     44 H11         0.2456    2.4779    1.7461 H         1 <0>         0.0490
     45 H12        -0.6643   -0.0853    2.4358 H         1 <0>         0.0446
     46 H13         0.3079    0.3813    1.0772 H         1 <0>         0.0575
     47 H14         0.7941   -2.1699    1.5017 H         1 <0>         0.0453
     48 H15         1.9129   -2.5721    2.8153 H         1 <0>         0.0586
     49 H16        -1.0569   -1.9734    2.9585 H         1 <0>         0.0551
     50 H17        -0.1688   -3.4037    3.5169 H         1 <0>         0.0567
     51 H18         3.1445   -1.1835    6.0827 H         1 <0>         0.0973
     52 H19         2.6336   -3.2655    7.2324 H         1 <0>         0.0601
     53 H20         1.4123   -2.1784    7.9119 H         1 <0>         0.0689
     54 H21        -2.4462   -2.9018    5.0627 H         1 <0>         0.0598
     55 H22        -1.2624   -4.1334    4.5636 H         1 <0>         0.0625
     56 H23        -2.4764   -3.8995    7.3471 H         1 <0>         0.0800
     57 H24        -2.9285   -5.0200    6.0480 H         1 <0>         0.0496
     58 H25         1.1213   -3.6726    9.0701 H         1 <0>         0.0616
     59 H26        -0.6191   -3.3880    8.8683 H         1 <0>         0.0776
     60 H27         0.6343   -6.0149    9.7395 H         1 <0>         0.0718
     61 H28        -0.2125   -4.8523   10.7604 H         1 <0>         0.0556
     62 H29        -2.9830   -7.2636    6.6245 H         1 <0>         0.0484
     63 H30        -3.3045   -7.5288    8.3550 H         1 <0>         0.0455
     64 H31        -3.5809   -5.9250    7.6339 H         1 <0>         0.0693
     65 H32         0.3023   -7.5530    8.3303 H         1 <0>         0.0628
     66 H33        -1.2052   -8.4905    8.4605 H         1 <0>         0.0521
     67 H34        -0.5748   -8.0368    6.8590 H         1 <0>         0.0603
     68 H35        -2.6062   -4.5369   10.4140 H         1 <0>         0.3695
     69 H36         2.3969   -5.0750    7.4662 H         1 <0>         0.0564
     70 H37         1.3599   -6.3851    8.0796 H         1 <0>         0.0578
     71 H38         1.5090   -6.1149    6.3266 H         1 <0>         0.0511
     72 H39        -1.8532   -1.1571    6.6747 H         1 <0>         0.0603
     73 H40        -1.3673   -2.3802    7.8731 H         1 <0>         0.0581
     74 H41        -0.2292   -1.0957    7.4009 H         1 <0>         0.0531
     75 H42         3.0299    2.6300    5.6336 H         1 <0>         0.0492
     76 H43         3.3780    0.9250    6.0082 H         1 <0>         0.0483
     77 H44         3.9293    1.6285    4.4689 H         1 <0>         0.0552
     78 H45        -1.9973   -0.8448    4.9116 H         1 <0>         0.0481
     79 H46        -0.7645    0.0581    5.8243 H         1 <0>         0.0542
     80 H47        -0.8080    0.1590    4.0478 H         1 <0>         0.0765
@<TRIPOS>BOND
     1    1    2 1
     2    1   40 1
     3    1   41 1
     4    1   42 1
     5    2    3 1
     6    2   33 1
     7    2    4 1
     8    4    5 1
     9    4   43 1
    10    4   44 1
    11    5    6 1
    12    5   45 1
    13    5   46 1
    14    6   31 1
    15    6    7 1
    16    6   37 1
    17    7    8 1
    18    7   47 1
    19    7   48 1
    20    8    9 1
    21    8   49 1
    22    8   50 1
    23    9   15 1
    24    9   10 1
    25    9   36 1
    26   10   11 2
    27   10   31 1
    28   11   12 1
    29   11   51 1
    30   12   13 1
    31   12   52 1
    32   12   53 1
    33   13   14 1
    34   13   20 1
    35   13   15 1
    36   15   16 1
    37   15   30 1
    38   16   17 1
    39   16   54 1
    40   16   55 1
    41   17   18 1
    42   17   56 1
    43   17   57 1
    44   18   19 1
    45   18   25 1
    46   18   20 1
    47   20   21 1
    48   20   29 1
    49   21   22 1
    50   21   58 1
    51   21   59 1
    52   22   23 1
    53   22   60 1
    54   22   61 1
    55   23   24 1
    56   23   25 1
    57   23   28 1
    58   25   26 1
    59   25   27 1
    60   26   62 1
    61   26   63 1
    62   26   64 1
    63   27   65 1
    64   27   66 1
    65   27   67 1
    66   28   68 1
    67   29   69 1
    68   29   70 1
    69   29   71 1
    70   30   72 1
    71   30   73 1
    72   30   74 1
    73   31   32 1
    74   31   33 1
    75   33   34 1
    76   33   35 1
    77   35   75 1
    78   35   76 1
    79   35   77 1
    80   36   78 1
    81   36   79 1
    82   36   80 1
    83   37   38 2
    84   37   39 1
@<TRIPOS>MOLECULE
CHEMBL159308
   71    73     0     0     0
SMALL
USER_CHARGES

@<TRIPOS>ATOM
      1 C1         -0.0187    1.5258    0.0104 C.3       1 <0>        -0.1543
      2 C2          0.0021   -0.0041    0.0020 C.3       1 <0>        -0.1262
      3 C3          0.7182   -0.4975   -1.2568 C.3       1 <0>        -0.1209
      4 C4          0.7390   -2.0273   -1.2652 C.3       1 <0>        -0.1213
      5 C5          1.4551   -2.5207   -2.5240 C.3       1 <0>        -0.1180
      6 C6          1.4758   -4.0506   -2.5324 C.3       1 <0>        -0.1176
      7 C7          2.1920   -4.5440   -3.7912 C.3       1 <0>        -0.1336
      8 C8          2.2127   -6.0738   -3.7996 C.3       1 <0>         0.1142
      9 N1          2.8984   -6.5463   -5.0050 N.am      1 <0>        -0.6090
     10 C9          4.3460   -6.7710   -4.9837 C.3       1 <0>         0.0676
     11 C10         2.1976   -6.7742   -6.1334 C.2       1 <0>         0.4958
     12 O1          0.9993   -6.5882   -6.1510 O.2       1 <0>        -0.5110
     13 C11         2.9030   -7.2602   -7.3733 C.3       1 <0>         0.0654
     14 N2          1.9290   -7.4303   -8.4543 N.pl3     1 <0>        -0.4731
     15 C12         1.2947   -8.6287   -8.6138 C.2       1 <0>         0.1461
     16 C13         0.3989   -8.7742   -9.6134 C.2       1 <0>        -0.2435
     17 C14         0.1426   -7.6737  -10.4711 C.2       1 <0>         0.5233
     18 O2         -0.6636   -7.7794  -11.3828 O.2       1 <0>        -0.5113
     19 N3          0.7903   -6.5174  -10.2744 N.2       1 <0>        -0.5833
     20 C15         1.6578   -6.3914   -9.2897 C.2       1 <0>         0.4025
     21 S1          2.4857   -4.8536   -9.0564 S.3       1 <0>        -0.0108
     22 C16         1.8223   -3.7942  -10.3709 C.3       1 <0>        -0.0514
     23 C17         2.4562   -2.4297  -10.2843 C.ar      1 <0>        -0.0988
     24 C18         1.8738   -1.4456   -9.5075 C.ar      1 <0>        -0.0655
     25 C19         2.4544   -0.1941   -9.4270 C.ar      1 <0>        -0.1530
     26 C20         3.6199    0.0739  -10.1247 C.ar      1 <0>         0.1126
     27 C21         4.2023   -0.9125  -10.9025 C.ar      1 <0>        -0.1536
     28 C22         3.6227   -2.1648  -10.9773 C.ar      1 <0>        -0.0663
     29 F1          4.1882    1.2971  -10.0471 F         1 <0>        -0.1351
     30 C23        -0.3169  -10.0849   -9.8152 C.3       1 <0>         0.0117
     31 C24        -1.6506  -10.0419   -9.1150 C.2       1 <0>        -0.2614
     32 C25        -2.7763   -9.6973   -9.7964 C.2       1 <0>         0.2056
     33 N4         -3.9653   -9.6668   -9.1395 N.am      1 <0>        -0.6226
     34 C26        -4.0220   -9.9749   -7.8303 C.2       1 <0>         0.6258
     35 N5         -2.9204  -10.3135   -7.1561 N.2       1 <0>        -0.5439
     36 C27        -1.7490  -10.3612   -7.7574 C.2       1 <0>         0.2608
     37 O3         -5.0951   -9.9440   -7.2516 O.2       1 <0>        -0.5317
     38 H1          1.0039    1.9031    0.0027 H         1 <0>         0.0532
     39 H2         -0.5459    1.8868   -0.8726 H         1 <0>         0.0533
     40 H3         -0.5289    1.8773    0.9072 H         1 <0>         0.0536
     41 H4          0.5293   -0.3651    0.8851 H         1 <0>         0.0603
     42 H5         -1.0205   -0.3814    0.0098 H         1 <0>         0.0605
     43 H6          0.1910   -0.1364   -2.1398 H         1 <0>         0.0605
     44 H7          1.7408   -0.1202   -1.2645 H         1 <0>         0.0604
     45 H8          1.2661   -2.3884   -0.3821 H         1 <0>         0.0611
     46 H9         -0.2836   -2.4046   -1.2575 H         1 <0>         0.0614
     47 H10         0.9279   -2.1597   -3.4071 H         1 <0>         0.0611
     48 H11         2.4777   -2.1435   -2.5317 H         1 <0>         0.0607
     49 H12         2.0030   -4.4117   -1.6494 H         1 <0>         0.0633
     50 H13         0.4533   -4.4279   -2.5247 H         1 <0>         0.0645
     51 H14         1.6648   -4.1829   -4.6743 H         1 <0>         0.0676
     52 H15         3.2146   -4.1667   -3.7990 H         1 <0>         0.0639
     53 H16         2.7399   -6.4349   -2.9166 H         1 <0>         0.0818
     54 H17         1.1901   -6.4511   -3.7919 H         1 <0>         0.0866
     55 H18         4.5497   -7.7994   -4.6855 H         1 <0>         0.0656
     56 H19         4.7559   -6.5929   -5.9779 H         1 <0>         0.0726
     57 H20         4.8093   -6.0877   -4.2719 H         1 <0>         0.0818
     58 H21         3.6549   -6.5303   -7.6732 H         1 <0>         0.1318
     59 H22         3.3860   -8.2151   -7.1658 H         1 <0>         0.1363
     60 H23         1.5075   -9.4517   -7.9477 H         1 <0>         0.1751
     61 H24         2.0448   -4.2372  -11.3417 H         1 <0>         0.1149
     62 H25         0.7427   -3.7014  -10.2527 H         1 <0>         0.1135
     63 H26         0.9645   -1.6548   -8.9636 H         1 <0>         0.1378
     64 H27         1.9991    0.5746   -8.8203 H         1 <0>         0.1407
     65 H28         5.1112   -0.7044  -11.4474 H         1 <0>         0.1412
     66 H29         4.0793   -2.9358  -11.5803 H         1 <0>         0.1388
     67 H30        -0.4712  -10.2543  -10.8808 H         1 <0>         0.0970
     68 H31         0.2845  -10.8947   -9.4020 H         1 <0>         0.0906
     69 H32        -2.7256   -9.4506  -10.8466 H         1 <0>         0.1817
     70 H33        -0.8662  -10.6413   -7.2018 H         1 <0>         0.1694
     71 H34        -4.7747   -9.4222   -9.6148 H         1 <0>         0.4228
@<TRIPOS>BOND
     1    1    2 1
     2    1   38 1
     3    1   39 1
     4    1   40 1
     5    2    3 1
     6    2   41 1
     7    2   42 1
     8    3    4 1
     9    3   43 1
    10    3   44 1
    11    4    5 1
    12    4   45 1
    13    4   46 1
    14    5    6 1
    15    5   47 1
    16    5   48 1
    17    6    7 1
    18    6   49 1
    19    6   50 1
    20    7    8 1
    21    7   51 1
    22    7   52 1
    23    8    9 1
    24    8   53 1
    25    8   54 1
    26    9   10 1
    27    9   11 am
    28   10   55 1
    29   10   56 1
    30   10   57 1
    31   11   12 2
    32   11   13 1
    33   13   14 1
    34   13   58 1
    35   13   59 1
    36   14   20 1
    37   14   15 1
    38   15   16 2
    39   15   60 1
    40   16   17 1
    41   16   30 1
    42   17   18 2
    43   17   19 1
    44   19   20 2
    45   20   21 1
    46   21   22 1
    47   22   23 1
    48   22   61 1
    49   22   62 1
    50   23   28 ar
    51   23   24 ar
    52   24   25 ar
    53   24   63 1
    54   25   26 ar
    55   25   64 1
    56   26   27 ar
    57   26   29 1
    58   27   28 ar
    59   27   65 1
    60   28   66 1
    61   30   67 1
    62   30   68 1
    63   30   31 1
    64   31   32 2
    65   31   36 1
    66   32   33 1
    67   32   69 1
    68   33   34 am
    69   33   71 1
    70   34   37 2
    71   34   35 1
    72   35   36 2
    73   36   70 1
@<TRIPOS>MOLECULE
CHEMBL350578
   74    76     0     0     0
SMALL
USER_CHARGES

@<TRIPOS>ATOM
      1 C1         -0.0187    1.5258    0.0104 C.3       1 <0>        -0.1543
      2 C2          0.0021   -0.0041    0.0020 C.3       1 <0>        -0.1262
      3 C3          0.7421   -0.5109    1.2415 C.3       1 <0>        -0.1209
      4 C4          0.7628   -2.0407    1.2331 C.3       1 <0>        -0.1213
      5 C5          1.5028   -2.5476    2.4727 C.3       1 <0>        -0.1180
      6 C6          1.5236   -4.0774    2.4642 C.3       1 <0>        -0.1176
      7 C7          2.2636   -4.5842    3.7038 C.3       1 <0>        -0.1335
      8 C8          2.2843   -6.1141    3.6954 C.3       1 <0>         0.1142
      9 N1          2.9929   -6.5994    4.8822 N.am      1 <0>        -0.6090
     10 C9          2.2546   -6.8604    6.1204 C.3       1 <0>         0.0677
     11 C10         4.3239   -6.8057    4.8350 C.2       1 <0>         0.4958
     12 O1          4.9351   -6.5896    3.8100 O.2       1 <0>        -0.5108
     13 C11         5.0528   -7.3049    6.0559 C.3       1 <0>         0.0655
     14 N2          6.4784   -7.4467    5.7496 N.pl3     1 <0>        -0.4732
     15 C12         6.9522   -8.6283    5.2563 C.2       1 <0>         0.1454
     16 C13         8.2678   -8.7477    4.9776 C.2       1 <0>        -0.2426
     17 C14         9.1215   -7.6381    5.2065 C.2       1 <0>         0.5233
     18 O2         10.3156   -7.7204    4.9621 O.2       1 <0>        -0.5111
     19 N3          8.6095   -6.4992    5.6920 N.2       1 <0>        -0.5834
     20 C15         7.3212   -6.3984    5.9533 C.2       1 <0>         0.4025
     21 S1          6.6815   -4.8827    6.5842 S.3       1 <0>        -0.0111
     22 C16         8.1349   -3.8024    6.6882 C.3       1 <0>        -0.0514
     23 C17         7.7219   -2.4546    7.2211 C.ar      1 <0>        -0.0987
     24 C18         7.3248   -1.4589    6.3481 C.ar      1 <0>        -0.0655
     25 C19         6.9454   -0.2226    6.8356 C.ar      1 <0>        -0.1531
     26 C20         6.9631    0.0185    8.1989 C.ar      1 <0>         0.1126
     27 C21         7.3610   -0.9795    9.0723 C.ar      1 <0>        -0.1536
     28 C22         7.7350   -2.2166    8.5828 C.ar      1 <0>        -0.0663
     29 F1          6.5929    1.2268    8.6765 F         1 <0>        -0.1352
     30 C23         8.8206  -10.0394    4.4325 C.3       1 <0>         0.0124
     31 C24         8.8800   -9.9653    2.9285 C.2       1 <0>        -0.2608
     32 C25         7.7550  -10.2756    2.1586 C.2       1 <0>         0.2572
     33 N4          7.8207  -10.2063    0.8445 N.2       1 <0>        -0.5446
     34 C26         8.9512   -9.8424    0.2344 C.2       1 <0>         0.6233
     35 O3          8.9856   -9.7861   -0.9834 O.2       1 <0>        -0.5327
     36 N5         10.0534   -9.5362    0.9440 N.am      1 <0>        -0.5152
     37 C27        10.0273   -9.5902    2.3014 C.2       1 <0>         0.2038
     38 C28        11.2819   -9.1396    0.2516 C.3       1 <0>         0.0523
     39 H1          1.0039    1.9031    0.0027 H         1 <0>         0.0533
     40 H2         -0.5459    1.8868   -0.8726 H         1 <0>         0.0536
     41 H3         -0.5289    1.8773    0.9072 H         1 <0>         0.0532
     42 H4         -1.0205   -0.3814    0.0098 H         1 <0>         0.0603
     43 H5          0.5123   -0.3556   -0.8948 H         1 <0>         0.0605
     44 H6          1.7647   -0.1336    1.2338 H         1 <0>         0.0605
     45 H7          0.2319   -0.1594    2.1383 H         1 <0>         0.0604
     46 H8         -0.2598   -2.4180    1.2409 H         1 <0>         0.0611
     47 H9          1.2730   -2.3923    0.3363 H         1 <0>         0.0614
     48 H10         2.5254   -2.1703    2.4649 H         1 <0>         0.0611
     49 H11         0.9926   -2.1961    3.3695 H         1 <0>         0.0607
     50 H12         0.5010   -4.4547    2.4720 H         1 <0>         0.0632
     51 H13         2.0337   -4.4289    1.5675 H         1 <0>         0.0645
     52 H14         3.2861   -4.2070    3.6960 H         1 <0>         0.0675
     53 H15         1.7534   -4.2327    4.6006 H         1 <0>         0.0639
     54 H16         1.2617   -6.4914    3.7031 H         1 <0>         0.0818
     55 H17         2.7945   -6.4656    2.7986 H         1 <0>         0.0866
     56 H18         1.9105   -7.8947    6.1271 H         1 <0>         0.0656
     57 H19         2.9079   -6.6893    6.9759 H         1 <0>         0.0726
     58 H20         1.3960   -6.1915    6.1794 H         1 <0>         0.0817
     59 H21         4.9254   -6.5931    6.8715 H         1 <0>         0.1317
     60 H22         4.6466   -8.2724    6.3513 H         1 <0>         0.1363
     61 H23         6.2817   -9.4587    5.0911 H         1 <0>         0.1751
     62 H24         8.8713   -4.2475    7.3573 H         1 <0>         0.1148
     63 H25         8.5706   -3.6830    5.6963 H         1 <0>         0.1134
     64 H26         7.3115   -1.6471    5.2847 H         1 <0>         0.1378
     65 H27         6.6356    0.5552    6.1534 H         1 <0>         0.1407
     66 H28         7.3755   -0.7924   10.1358 H         1 <0>         0.1411
     67 H29         8.0411   -2.9967    9.2642 H         1 <0>         0.1388
     68 H30         9.8233  -10.2011    4.8282 H         1 <0>         0.0964
     69 H31         8.1748  -10.8654    4.7304 H         1 <0>         0.0904
     70 H32         6.8346  -10.5717    2.6399 H         1 <0>         0.1686
     71 H33        10.9078   -9.3414    2.8753 H         1 <0>         0.1793
     72 H34        11.1120   -9.1507   -0.8251 H         1 <0>         0.1067
     73 H35        11.5670   -8.1350    0.5640 H         1 <0>         0.0840
     74 H36        12.0810   -9.8379    0.5005 H         1 <0>         0.0849
@<TRIPOS>BOND
     1    1    2 1
     2    1   39 1
     3    1   40 1
     4    1   41 1
     5    2    3 1
     6    2   42 1
     7    2   43 1
     8    3    4 1
     9    3   44 1
    10    3   45 1
    11    4    5 1
    12    4   46 1
    13    4   47 1
    14    5    6 1
    15    5   48 1
    16    5   49 1
    17    6    7 1
    18    6   50 1
    19    6   51 1
    20    7    8 1
    21    7   52 1
    22    7   53 1
    23    8    9 1
    24    8   54 1
    25    8   55 1
    26    9   10 1
    27    9   11 am
    28   10   56 1
    29   10   57 1
    30   10   58 1
    31   11   12 2
    32   11   13 1
    33   13   14 1
    34   13   59 1
    35   13   60 1
    36   14   20 1
    37   14   15 1
    38   15   16 2
    39   15   61 1
    40   16   17 1
    41   16   30 1
    42   17   18 2
    43   17   19 1
    44   19   20 2
    45   20   21 1
    46   21   22 1
    47   22   23 1
    48   22   62 1
    49   22   63 1
    50   23   28 ar
    51   23   24 ar
    52   24   25 ar
    53   24   64 1
    54   25   26 ar
    55   25   65 1
    56   26   27 ar
    57   26   29 1
    58   27   28 ar
    59   27   66 1
    60   28   67 1
    61   30   31 1
    62   30   68 1
    63   30   69 1
    64   31   37 2
    65   31   32 1
    66   32   33 2
    67   32   70 1
    68   33   34 1
    69   34   35 2
    70   34   36 am
    71   36   37 1
    72   36   38 1
    73   37   71 1
    74   38   72 1
    75   38   73 1
    76   38   74 1
@<TRIPOS>MOLECULE
CHEMBL178405
   61    64     0     0     0
SMALL
USER_CHARGES

@<TRIPOS>ATOM
      1 C1         -1.3016    1.7077    0.1048 C.3       1 <0>        -0.1510
      2 C2         -1.0789    0.2116   -0.1254 C.3       1 <0>        -0.0753
      3 C3          0.1060   -0.2502    0.6832 C.2       1 <0>         0.1359
      4 C4          1.4176   -0.2538    0.2456 C.2       1 <0>        -0.2241
      5 C5          2.2200   -0.7836    1.3648 C.ar      1 <0>        -0.0812
      6 C6          3.5805   -1.0316    1.5531 C.ar      1 <0>         0.1690
      7 C7          4.0128   -1.5498    2.7574 C.ar      1 <0>        -0.2296
      8 C8          3.1098   -1.8247    3.7829 C.ar      1 <0>        -0.0227
      9 C9          1.7699   -1.5784    3.6084 C.ar      1 <0>        -0.1009
     10 C10         1.3119   -1.0570    2.3940 C.ar      1 <0>         0.1347
     11 N1          0.0510   -0.7170    1.9442 N.pl3     1 <0>        -0.4472
     12 C11        -1.1779   -0.8495    2.7307 C.3       1 <0>         0.1359
     13 C12        -1.7167   -2.2497    2.5885 C.ar      1 <0>        -0.1181
     14 C13        -2.0947   -2.7220    1.3455 C.ar      1 <0>        -0.1002
     15 C14        -2.5889   -4.0063    1.2151 C.ar      1 <0>        -0.1152
     16 C15        -2.7048   -4.8186    2.3276 C.ar      1 <0>        -0.1086
     17 C16        -2.3260   -4.3467    3.5704 C.ar      1 <0>        -0.1173
     18 C17        -1.8277   -3.0638    3.7002 C.ar      1 <0>        -0.1087
     19 C18         0.7488   -1.8390    4.6851 C.3       1 <0>        -0.1095
     20 C19         1.3137   -2.7794    5.7474 C.3       1 <0>        -0.1174
     21 C20         2.6700   -2.2302    6.2057 C.3       1 <0>        -0.1199
     22 C21         3.6672   -2.3968    5.0614 C.3       1 <0>        -0.0776
     23 O1          4.4703   -0.7662    0.5612 O.3       1 <0>        -0.2928
     24 C22         5.8452   -1.0473    0.8307 C.3       1 <0>         0.0693
     25 C23         6.6763   -0.6922   -0.3752 C.2       1 <0>         0.4611
     26 O2          6.1456   -0.2444   -1.3641 O.2       1 <0>        -0.4784
     27 O3          8.0060   -0.8734   -0.3509 O.3       1 <0>        -0.3496
     28 C24         8.7313   -0.5153   -1.5290 C.3       1 <0>         0.0350
     29 C25         1.9095    0.1790   -1.0613 C.2       1 <0>         0.4426
     30 O4          2.2494    1.3337   -1.2310 O.2       1 <0>        -0.4064
     31 C26         1.9944   -0.7964   -2.1864 C.2       1 <0>         0.4893
     32 O5          1.7055   -1.9610   -2.0032 O.2       1 <0>        -0.5021
     33 N2          2.3919   -0.3846   -3.4067 N.am      1 <0>        -0.8288
     34 H1         -0.4136    2.2590   -0.2045 H         1 <0>         0.0659
     35 H2         -2.1586    2.0417   -0.4800 H         1 <0>         0.0693
     36 H3         -1.4911    1.8883    1.1629 H         1 <0>         0.0583
     37 H4         -1.9669   -0.3397    0.1840 H         1 <0>         0.0855
     38 H5         -0.8894    0.0311   -1.1835 H         1 <0>         0.0890
     39 H6          5.0644   -1.7451    2.9068 H         1 <0>         0.1314
     40 H7         -0.9613   -0.6484    3.7798 H         1 <0>         0.1076
     41 H8         -1.9190   -0.1366    2.3695 H         1 <0>         0.1058
     42 H9         -2.0041   -2.0873    0.4763 H         1 <0>         0.1229
     43 H10        -2.8849   -4.3750    0.2441 H         1 <0>         0.1254
     44 H11        -3.0917   -5.8218    2.2258 H         1 <0>         0.1249
     45 H12        -2.4169   -4.9812    4.4397 H         1 <0>         0.1265
     46 H13        -1.5283   -2.6964    4.6706 H         1 <0>         0.1340
     47 H14         0.4710   -0.8945    5.1527 H         1 <0>         0.0700
     48 H15        -0.1363   -2.2920    4.2385 H         1 <0>         0.0964
     49 H16         0.6312   -2.8273    6.5959 H         1 <0>         0.0673
     50 H17         1.4448   -3.7753    5.3241 H         1 <0>         0.0670
     51 H18         2.5726   -1.1741    6.4572 H         1 <0>         0.0661
     52 H19         3.0154   -2.7856    7.0776 H         1 <0>         0.0688
     53 H20         3.8770   -3.4569    4.9191 H         1 <0>         0.0789
     54 H21         4.5927   -1.8788    5.3132 H         1 <0>         0.0768
     55 H22         6.1756   -0.4578    1.6860 H         1 <0>         0.1097
     56 H23         5.9624   -2.1078    1.0533 H         1 <0>         0.1095
     57 H24         8.3706   -1.1058   -2.3712 H         1 <0>         0.0633
     58 H25         8.5838    0.5442   -1.7384 H         1 <0>         0.0638
     59 H26         9.7925   -0.7111   -1.3759 H         1 <0>         0.1075
     60 H27         2.6227    0.5461   -3.5531 H         1 <0>         0.4104
     61 H28         2.4471   -1.0189   -4.1384 H         1 <0>         0.4078
@<TRIPOS>BOND
     1    1    2 1
     2    1   34 1
     3    1   35 1
     4    1   36 1
     5    2    3 1
     6    2   37 1
     7    2   38 1
     8    3   11 1
     9    3    4 2
    10    4    5 1
    11    4   29 1
    12    5   10 ar
    13    5    6 ar
    14    6    7 ar
    15    6   23 1
    16    7    8 ar
    17    7   39 1
    18    8   22 1
    19    8    9 ar
    20    9   10 ar
    21    9   19 1
    22   10   11 1
    23   11   12 1
    24   12   13 1
    25   12   40 1
    26   12   41 1
    27   13   18 ar
    28   13   14 ar
    29   14   15 ar
    30   14   42 1
    31   15   16 ar
    32   15   43 1
    33   16   17 ar
    34   16   44 1
    35   17   18 ar
    36   17   45 1
    37   18   46 1
    38   19   20 1
    39   19   47 1
    40   19   48 1
    41   20   21 1
    42   20   49 1
    43   20   50 1
    44   21   22 1
    45   21   51 1
    46   21   52 1
    47   22   53 1
    48   22   54 1
    49   23   24 1
    50   24   25 1
    51   24   55 1
    52   24   56 1
    53   25   26 2
    54   25   27 1
    55   27   28 1
    56   28   57 1
    57   28   58 1
    58   28   59 1
    59   29   30 2
    60   29   31 1
    61   31   32 2
    62   31   33 am
    63   33   60 1
    64   33   61 1
@<TRIPOS>MOLECULE
CHEMBL292645
   71    74     0     0     0
SMALL
USER_CHARGES

@<TRIPOS>ATOM
      1 C1          0.1016    1.6108    1.5441 C.3       1 <0>        -0.1486
      2 C2          0.1707    0.1069    1.4776 C.2       1 <0>         0.4555
      3 O1          1.1484   -0.4718    1.8890 O.2       1 <0>        -0.5094
      4 O2         -0.8539   -0.5899    0.9614 O.3       1 <0>        -0.3354
      5 C3         -0.7207   -2.0105    0.9297 C.3       1 <0>         0.1009
      6 H1          0.3422   -2.2610    0.8289 H         1 <0>         0.0818
      7 C4         -1.2394   -2.6107    2.2416 C.3       1 <0>        -0.1300
      8 C5         -2.7280   -2.3096    2.3522 C.3       1 <0>        -0.0641
      9 C6         -3.2694   -2.5311    3.7618 C.3       1 <0>        -0.0316
     10 C7         -2.5295   -1.5754    4.7182 C.3       1 <0>        -0.1116
     11 C8         -3.0921   -1.7346    6.1280 C.3       1 <0>        -0.1176
     12 C9         -4.5654   -1.3573    6.1671 C.3       1 <0>        -0.1070
     13 C10        -5.4005   -2.1207    5.1394 C.3       1 <0>        -0.0462
     14 C11        -4.7438   -2.1469    3.7790 C.3       1 <0>        -0.0551
     15 C12        -5.5218   -2.9556    2.7450 C.3       1 <0>        -0.1163
     16 C13        -4.9936   -2.5836    1.3522 C.3       1 <0>        -0.1189
     17 C14        -3.5104   -2.9848    1.2418 C.3       1 <0>        -0.0365
     18 C15        -2.9819   -2.4772   -0.1188 C.3       1 <0>        -0.0588
     19 C16        -1.4785   -2.5897   -0.2611 C.3       1 <0>        -0.0213
     20 C17        -0.9649   -1.9468   -1.5551 C.3       1 <0>        -0.0926
     21 H2          0.0907   -1.6873   -1.4031 H         1 <0>         0.0981
     22 C18        -1.7089   -0.7244   -1.9665 C.2       1 <0>        -0.2145
     23 C19        -2.8223   -0.3147   -1.3956 C.2       1 <0>        -0.0386
     24 C20        -3.4682   -1.0310   -0.2546 C.3       1 <0>        -0.1042
     25 C21        -1.1760    0.0757   -3.0732 C.2       1 <0>         0.3579
     26 O3         -0.1526   -0.2639   -3.6295 O.2       1 <0>        -0.4509
     27 C22        -1.0359   -2.9738   -2.6606 C.2       1 <0>         0.3538
     28 O4         -0.0306   -3.3064   -3.2413 O.2       1 <0>        -0.4443
     29 C23        -1.0445   -4.0690   -0.4093 C.3       1 <0>        -0.1721
     30 C24        -3.4664   -4.5109    1.2782 C.3       1 <0>        -0.1541
     31 C25        -6.7388   -1.3489    5.0138 C.3       1 <0>        -0.1496
     32 C26        -5.7405   -3.5131    5.6685 C.3       1 <0>        -0.1452
     33 C27        -3.0094   -3.9554    4.2350 C.3       1 <0>        -0.1535
     34 H3          1.0179    1.9973    1.9904 H         1 <0>         0.1006
     35 H4         -0.0107    2.0142    0.5378 H         1 <0>         0.0982
     36 H5         -0.7524    1.9087    2.1524 H         1 <0>         0.0995
     37 H6         -1.0444   -3.6751    2.2717 H         1 <0>         0.0838
     38 H7         -0.7072   -2.1321    3.0710 H         1 <0>         0.0730
     39 H8         -2.8261   -1.2074    2.1814 H         1 <0>         0.0705
     40 H9         -1.4698   -1.8209    4.7180 H         1 <0>         0.0612
     41 H10        -2.6737   -0.5522    4.3752 H         1 <0>         0.0582
     42 H11        -2.9428   -2.7425    6.5032 H         1 <0>         0.0659
     43 H12        -2.5403   -1.0542    6.7964 H         1 <0>         0.0530
     44 H13        -4.9634   -1.5662    7.1678 H         1 <0>         0.0585
     45 H14        -4.6708   -0.2833    5.9828 H         1 <0>         0.0572
     46 H15        -4.7750   -1.0878    3.4049 H         1 <0>         0.0548
     47 H16        -5.4255   -4.0192    2.9192 H         1 <0>         0.0689
     48 H17        -6.5831   -2.6931    2.7804 H         1 <0>         0.0607
     49 H18        -5.5646   -3.1104    0.5929 H         1 <0>         0.0646
     50 H19        -5.0894   -1.5080    1.2217 H         1 <0>         0.0688
     51 H20        -3.4727   -3.0805   -0.9078 H         1 <0>         0.0787
     52 H21        -3.2907    0.5827   -1.7711 H         1 <0>         0.1227
     53 H22        -4.5510   -1.0438   -0.4340 H         1 <0>         0.0866
     54 H23        -3.2812   -0.4843    0.6673 H         1 <0>         0.1017
     55 H24        -1.6943    0.9674   -3.3934 H         1 <0>         0.1015
     56 H25        -1.9857   -3.4106   -2.9317 H         1 <0>         0.0903
     57 H26        -1.1359   -4.5726    0.5531 H         1 <0>         0.0803
     58 H27        -1.6838   -4.5637   -1.1404 H         1 <0>         0.0700
     59 H28        -0.0083   -4.1117   -0.7448 H         1 <0>         0.0652
     60 H29        -4.1168   -4.8743    2.0738 H         1 <0>         0.0669
     61 H30        -3.8065   -4.9072    0.3214 H         1 <0>         0.0553
     62 H31        -2.4444   -4.8406    1.4654 H         1 <0>         0.0606
     63 H32        -6.5408   -0.3302    4.6803 H         1 <0>         0.0511
     64 H33        -7.3806   -1.8501    4.2892 H         1 <0>         0.0554
     65 H34        -7.2361   -1.3237    5.9834 H         1 <0>         0.0529
     66 H35        -6.4096   -3.4232    6.5244 H         1 <0>         0.0511
     67 H36        -6.2298   -4.0904    4.8840 H         1 <0>         0.0558
     68 H37        -4.8249   -4.0191    5.9747 H         1 <0>         0.0593
     69 H38        -1.9548   -4.1960    4.1009 H         1 <0>         0.0520
     70 H39        -3.2705   -4.0411    5.2898 H         1 <0>         0.0623
     71 H40        -3.6170   -4.6482    3.6528 H         1 <0>         0.0628
@<TRIPOS>BOND
     1    1    2 1
     2    1   34 1
     3    1   35 1
     4    1   36 1
     5    2    3 2
     6    2    4 1
     7    4    5 1
     8    5    6 1
     9    5   19 1
    10    5    7 1
    11    7    8 1
    12    7   37 1
    13    7   38 1
    14    8   17 1
    15    8    9 1
    16    8   39 1
    17    9   14 1
    18    9   10 1
    19    9   33 1
    20   10   11 1
    21   10   40 1
    22   10   41 1
    23   11   12 1
    24   11   42 1
    25   11   43 1
    26   12   13 1
    27   12   44 1
    28   12   45 1
    29   13   14 1
    30   13   31 1
    31   13   32 1
    32   14   15 1
    33   14   46 1
    34   15   16 1
    35   15   47 1
    36   15   48 1
    37   16   17 1
    38   16   49 1
    39   16   50 1
    40   17   18 1
    41   17   30 1
    42   18   24 1
    43   18   19 1
    44   18   51 1
    45   19   20 1
    46   19   29 1
    47   20   21 1
    48   20   22 1
    49   20   27 1
    50   22   23 2
    51   22   25 1
    52   23   24 1
    53   23   52 1
    54   24   53 1
    55   24   54 1
    56   25   26 2
    57   25   55 1
    58   27   28 2
    59   27   56 1
    60   29   57 1
    61   29   58 1
    62   29   59 1
    63   30   60 1
    64   30   61 1
    65   30   62 1
    66   31   63 1
    67   31   64 1
    68   31   65 1
    69   32   66 1
    70   32   67 1
    71   32   68 1
    72   33   69 1
    73   33   70 1
    74   33   71 1
@<TRIPOS>MOLECULE
CHEMBL292645__1
   71    74     0     0     0
SMALL
USER_CHARGES

@<TRIPOS>ATOM
      1 C1          0.1964    1.6577    1.5989 C.3       1 <0>        -0.1488
      2 C2          0.2710    0.1533    1.5534 C.2       1 <0>         0.4607
      3 O1          1.2772   -0.4128    1.9099 O.2       1 <0>        -0.5086
      4 O2         -0.7803   -0.5579    1.1167 O.3       1 <0>        -0.3426
      5 C3         -0.6398   -1.9804    1.1003 C.3       1 <0>         0.0946
      6 H1          0.4127   -2.2285    0.9353 H         1 <0>         0.0793
      7 C4         -1.0500   -2.5335    2.4686 C.3       1 <0>        -0.1290
      8 C5         -2.5273   -2.2283    2.6890 C.3       1 <0>        -0.0626
      9 C6         -2.9535   -2.3848    4.1430 C.3       1 <0>        -0.0304
     10 C7         -2.1772   -1.3537    4.9854 C.3       1 <0>        -0.1119
     11 C8         -2.6265   -1.4480    6.4407 C.3       1 <0>        -0.1174
     12 C9         -4.1035   -1.1052    6.5688 C.3       1 <0>        -0.1070
     13 C10        -4.9877   -1.9539    5.6556 C.3       1 <0>        -0.0462
     14 C11        -4.4359   -2.0481    4.2517 C.3       1 <0>        -0.0561
     15 C12        -5.2564   -2.9543    3.3390 C.3       1 <0>        -0.1137
     16 C13        -4.8592   -2.6628    1.8869 C.3       1 <0>        -0.1118
     17 C14        -3.3719   -2.9826    1.6727 C.3       1 <0>        -0.0332
     18 C15        -2.9743   -2.4812    0.2801 C.3       1 <0>        -0.0620
     19 C16        -1.4863   -2.5756   -0.0251 C.3       1 <0>        -0.0219
     20 C17        -1.2320   -1.7395   -1.2993 C.3       1 <0>        -0.1005
     21 H2         -1.3396   -0.6846   -1.0669 H         1 <0>         0.1114
     22 C18        -2.2084   -2.1113   -2.3745 C.2       1 <0>        -0.2132
     23 C19        -3.3395   -2.7550   -2.1603 C.2       1 <0>        -0.0540
     24 C20        -3.7877   -3.1990   -0.7960 C.3       1 <0>        -0.1028
     25 C21        -1.8838   -1.7375   -3.7525 C.2       1 <0>         0.3589
     26 O3         -0.8522   -1.1462   -3.9938 O.2       1 <0>        -0.4501
     27 C22         0.1645   -2.0125   -1.7951 C.2       1 <0>         0.3500
     28 O4          0.9618   -1.1097   -1.8816 O.2       1 <0>        -0.4403
     29 C23        -1.0160   -4.0022   -0.3244 C.3       1 <0>        -0.1615
     30 C24        -3.2064   -4.4962    1.7669 C.3       1 <0>        -0.1573
     31 C25        -5.2418   -3.3194    6.2922 C.3       1 <0>        -0.1448
     32 C26        -6.3561   -1.2287    5.5862 C.3       1 <0>        -0.1496
     33 C27        -2.6115   -3.7719    4.6729 C.3       1 <0>        -0.1529
     34 H3          1.1372    2.0569    1.9780 H         1 <0>         0.1014
     35 H4          0.0163    2.0432    0.5954 H         1 <0>         0.1003
     36 H5         -0.6182    1.9614    2.2564 H         1 <0>         0.0990
     37 H6         -0.8419   -3.5956    2.5157 H         1 <0>         0.0844
     38 H7         -0.4535   -2.0246    3.2345 H         1 <0>         0.0724
     39 H8         -2.6611   -1.1430    2.4509 H         1 <0>         0.0679
     40 H9         -1.1122   -1.5636    4.9144 H         1 <0>         0.0610
     41 H10        -2.3851   -0.3566    4.5984 H         1 <0>         0.0583
     42 H11        -2.4210   -2.4295    6.8576 H         1 <0>         0.0662
     43 H12        -2.0465   -0.7175    7.0275 H         1 <0>         0.0531
     44 H13        -4.4197   -1.2593    7.6072 H         1 <0>         0.0589
     45 H14        -4.2531   -0.0481    6.3251 H         1 <0>         0.0572
     46 H15        -4.5368   -1.0191    3.8127 H         1 <0>         0.0554
     47 H16        -5.0958   -4.0004    3.5713 H         1 <0>         0.0686
     48 H17        -6.3225   -2.7348    3.4471 H         1 <0>         0.0609
     49 H18        -5.4605   -3.2758    1.2183 H         1 <0>         0.0649
     50 H19        -5.0305   -1.6079    1.6728 H         1 <0>         0.0602
     51 H20        -3.2542   -1.4045    0.2380 H         1 <0>         0.0770
     52 H21        -3.9758   -2.9774   -3.0012 H         1 <0>         0.1257
     53 H22        -3.6897   -4.2759   -0.7318 H         1 <0>         0.0977
     54 H23        -4.8434   -2.9337   -0.6829 H         1 <0>         0.0892
     55 H24        -2.5627   -1.9882   -4.5542 H         1 <0>         0.1049
     56 H25         0.4524   -3.0157   -2.0731 H         1 <0>         0.0897
     57 H26        -1.0906   -4.6066    0.5796 H         1 <0>         0.0760
     58 H27        -1.6429   -4.4354   -1.1038 H         1 <0>         0.0744
     59 H28         0.0202   -3.9799   -0.6621 H         1 <0>         0.0608
     60 H29        -3.7069   -4.8612    2.6638 H         1 <0>         0.0667
     61 H30        -3.6481   -4.9654    0.8878 H         1 <0>         0.0584
     62 H31        -2.1459   -4.7433    1.8165 H         1 <0>         0.0615
     63 H32        -5.8443   -3.1943    7.1919 H         1 <0>         0.0511
     64 H33        -5.7726   -3.9568    5.5851 H         1 <0>         0.0559
     65 H34        -4.2897   -3.7811    6.5538 H         1 <0>         0.0593
     66 H35        -6.2165   -0.2276    5.1781 H         1 <0>         0.0510
     67 H36        -7.0335   -1.7916    4.9441 H         1 <0>         0.0552
     68 H37        -6.7804   -1.1568    6.5877 H         1 <0>         0.0530
     69 H38        -1.5642   -3.9918    4.4660 H         1 <0>         0.0524
     70 H39        -2.7835   -3.8025    5.7488 H         1 <0>         0.0623
     71 H40        -3.2422   -4.5137    4.1828 H         1 <0>         0.0630
@<TRIPOS>BOND
     1    1    2 1
     2    1   34 1
     3    1   35 1
     4    1   36 1
     5    2    3 2
     6    2    4 1
     7    4    5 1
     8    5    6 1
     9    5   19 1
    10    5    7 1
    11    7    8 1
    12    7   37 1
    13    7   38 1
    14    8   17 1
    15    8    9 1
    16    8   39 1
    17    9   14 1
    18    9   10 1
    19    9   33 1
    20   10   11 1
    21   10   40 1
    22   10   41 1
    23   11   12 1
    24   11   42 1
    25   11   43 1
    26   12   13 1
    27   12   44 1
    28   12   45 1
    29   13   14 1
    30   13   31 1
    31   13   32 1
    32   14   15 1
    33   14   46 1
    34   15   16 1
    35   15   47 1
    36   15   48 1
    37   16   17 1
    38   16   49 1
    39   16   50 1
    40   17   18 1
    41   17   30 1
    42   18   24 1
    43   18   19 1
    44   18   51 1
    45   19   20 1
    46   19   29 1
    47   20   21 1
    48   20   22 1
    49   20   27 1
    50   22   23 2
    51   22   25 1
    52   23   24 1
    53   23   52 1
    54   24   53 1
    55   24   54 1
    56   25   26 2
    57   25   55 1
    58   27   28 2
    59   27   56 1
    60   29   57 1
    61   29   58 1
    62   29   59 1
    63   30   60 1
    64   30   61 1
    65   30   62 1
    66   31   63 1
    67   31   64 1
    68   31   65 1
    69   32   66 1
    70   32   67 1
    71   32   68 1
    72   33   69 1
    73   33   70 1
    74   33   71 1
@<TRIPOS>MOLECULE
CHEMBL292645__2
   71    74     0     0     0
SMALL
USER_CHARGES

@<TRIPOS>ATOM
      1 C1         -0.1216    1.4956    1.9955 C.3       1 <0>        -0.1491
      2 C2         -0.0620   -0.0070    1.8979 C.2       1 <0>         0.4557
      3 O1          0.8393   -0.6116    2.4289 O.2       1 <0>        -0.5095
      4 O2         -1.0101   -0.6738    1.2210 O.3       1 <0>        -0.3342
      5 C3         -0.8911   -2.0952    1.1693 C.3       1 <0>         0.1019
      6 H1          0.1715   -2.3606    1.2150 H         1 <0>         0.0814
      7 C4         -1.6010   -2.7188    2.3765 C.3       1 <0>        -0.1355
      8 C5         -3.0872   -2.3724    2.2885 C.3       1 <0>        -0.0606
      9 C6         -3.8112   -2.6011    3.5994 C.3       1 <0>        -0.0248
     10 C7         -3.1287   -1.8010    4.7177 C.3       1 <0>        -0.1166
     11 C8         -3.4697   -0.3196    4.6282 C.3       1 <0>        -0.1193
     12 C9         -4.9713   -0.1821    4.8810 C.3       1 <0>        -0.1091
     13 C10        -5.7358   -0.8601    3.7403 C.3       1 <0>        -0.0467
     14 C11        -5.2926   -2.2853    3.5029 C.3       1 <0>        -0.0523
     15 C12        -5.9290   -2.8960    2.2610 C.3       1 <0>        -0.1079
     16 C13        -5.1852   -2.6129    0.9675 C.3       1 <0>        -0.1208
     17 C14        -3.7064   -3.0204    1.0650 C.3       1 <0>        -0.0342
     18 C15        -2.9849   -2.4989   -0.1999 C.3       1 <0>        -0.0591
     19 C16        -1.4782   -2.6324   -0.1314 C.3       1 <0>        -0.0213
     20 C17        -0.7772   -1.9653   -1.3217 C.3       1 <0>        -0.0940
     21 H2          0.2699   -1.7975   -1.0407 H         1 <0>         0.0990
     22 C18        -1.3856   -0.6650   -1.7192 C.2       1 <0>        -0.2149
     23 C19        -2.5702   -0.2631   -1.3094 C.2       1 <0>        -0.0363
     24 C20        -3.4419   -1.0519   -0.3907 C.3       1 <0>        -0.1047
     25 C21        -0.6300    0.2174   -2.6114 C.2       1 <0>         0.3593
     26 O3          0.4661   -0.1170   -3.0099 O.2       1 <0>        -0.4517
     27 C22        -0.8023   -2.9159   -2.4935 C.2       1 <0>         0.3543
     28 O4          0.2332   -3.2961   -2.9847 O.2       1 <0>        -0.4449
     29 C23        -1.0467   -4.1144   -0.2581 C.3       1 <0>        -0.1699
     30 C24        -3.6822   -4.5487    1.0773 C.3       1 <0>        -0.1531
     31 C25        -7.2240   -0.8793    4.1667 C.3       1 <0>        -0.1500
     32 C26        -5.6320    0.0250    2.4989 C.3       1 <0>        -0.1454
     33 C27        -3.6742   -4.0733    4.0566 C.3       1 <0>        -0.1573
     34 H3          0.7257    1.8557    2.5790 H         1 <0>         0.1005
     35 H4         -0.0832    1.9265    0.9950 H         1 <0>         0.0978
     36 H5         -1.0505    1.7915    2.4830 H         1 <0>         0.0997
     37 H6         -1.4466   -3.7904    2.3937 H         1 <0>         0.0829
     38 H7         -1.1720   -2.2848    3.2821 H         1 <0>         0.0746
     39 H8         -3.1201   -1.2686    2.1137 H         1 <0>         0.0795
     40 H9         -3.4843   -2.1901    5.6807 H         1 <0>         0.0581
     41 H10        -2.0523   -1.9419    4.6775 H         1 <0>         0.0636
     42 H11        -2.9233    0.2300    5.3986 H         1 <0>         0.0566
     43 H12        -3.2045    0.0746    3.6528 H         1 <0>         0.0661
     44 H13        -5.2286   -0.6601    5.8255 H         1 <0>         0.0601
     45 H14        -5.2397    0.8732    4.9204 H         1 <0>         0.0608
     46 H15        -5.7526   -2.8681    4.3593 H         1 <0>         0.0525
     47 H16        -6.0102   -3.9840    2.4037 H         1 <0>         0.0570
     48 H17        -6.9625   -2.5377    2.1575 H         1 <0>         0.0608
     49 H18        -5.6376   -3.2289    0.1688 H         1 <0>         0.0544
     50 H19        -5.2785   -1.5832    0.6600 H         1 <0>         0.0781
     51 H20        -3.3654   -3.0935   -1.0566 H         1 <0>         0.0775
     52 H21        -2.9306    0.6942   -1.6622 H         1 <0>         0.1223
     53 H22        -4.4543   -1.0642   -0.8206 H         1 <0>         0.0861
     54 H23        -3.4937   -0.5469    0.5730 H         1 <0>         0.1025
     55 H24        -1.0487    1.1657   -2.9146 H         1 <0>         0.1011
     56 H25        -1.7464   -3.2561   -2.8927 H         1 <0>         0.0908
     57 H26        -1.2871   -4.6429    0.6643 H         1 <0>         0.0793
     58 H27        -1.5765   -4.5771   -1.0907 H         1 <0>         0.0683
     59 H28         0.0273   -4.1660   -0.4372 H         1 <0>         0.0650
     60 H29        -4.4665   -4.9191    1.7374 H         1 <0>         0.0646
     61 H30        -3.8504   -4.9229    0.0675 H         1 <0>         0.0554
     62 H31        -2.7125   -4.8939    1.4359 H         1 <0>         0.0603
     63 H32        -7.5719    0.1425    4.3181 H         1 <0>         0.0539
     64 H33        -7.8193   -1.3540    3.3868 H         1 <0>         0.0546
     65 H34        -7.3285   -1.4401    5.0956 H         1 <0>         0.0514
     66 H35        -4.5838    0.1461    2.2256 H         1 <0>         0.0564
     67 H36        -6.1710   -0.4413    1.6741 H         1 <0>         0.0599
     68 H37        -6.0673    1.0015    2.7114 H         1 <0>         0.0512
     69 H38        -2.6213   -4.3550    4.0641 H         1 <0>         0.0542
     70 H39        -4.0866   -4.1821    5.0597 H         1 <0>         0.0507
     71 H40        -4.2184   -4.7197    3.3680 H         1 <0>         0.0631
@<TRIPOS>BOND
     1    1    2 1
     2    1   34 1
     3    1   35 1
     4    1   36 1
     5    2    3 2
     6    2    4 1
     7    4    5 1
     8    5    6 1
     9    5   19 1
    10    5    7 1
    11    7    8 1
    12    7   37 1
    13    7   38 1
    14    8   17 1
    15    8    9 1
    16    8   39 1
    17    9   14 1
    18    9   10 1
    19    9   33 1
    20   10   11 1
    21   10   40 1
    22   10   41 1
    23   11   12 1
    24   11   42 1
    25   11   43 1
    26   12   13 1
    27   12   44 1
    28   12   45 1
    29   13   14 1
    30   13   31 1
    31   13   32 1
    32   14   15 1
    33   14   46 1
    34   15   16 1
    35   15   47 1
    36   15   48 1
    37   16   17 1
    38   16   49 1
    39   16   50 1
    40   17   18 1
    41   17   30 1
    42   18   24 1
    43   18   19 1
    44   18   51 1
    45   19   20 1
    46   19   29 1
    47   20   21 1
    48   20   22 1
    49   20   27 1
    50   22   23 2
    51   22   25 1
    52   23   24 1
    53   23   52 1
    54   24   53 1
    55   24   54 1
    56   25   26 2
    57   25   55 1
    58   27   28 2
    59   27   56 1
    60   29   57 1
    61   29   58 1
    62   29   59 1
    63   30   60 1
    64   30   61 1
    65   30   62 1
    66   31   63 1
    67   31   64 1
    68   31   65 1
    69   32   66 1
    70   32   67 1
    71   32   68 1
    72   33   69 1
    73   33   70 1
    74   33   71 1
@<TRIPOS>MOLECULE
CHEMBL292645__3
   71    74     0     0     0
SMALL
USER_CHARGES

@<TRIPOS>ATOM
      1 C1          0.2196    1.6541    1.6527 C.3       1 <0>        -0.1494
      2 C2          0.3039    0.1536    1.5409 C.2       1 <0>         0.4615
      3 O1          1.2930   -0.4260    1.9224 O.2       1 <0>        -0.5089
      4 O2         -0.7199   -0.5390    1.0175 O.3       1 <0>        -0.3416
      5 C3         -0.5717   -1.9584    0.9421 C.3       1 <0>         0.0950
      6 H1          0.4899   -2.1954    0.8205 H         1 <0>         0.0786
      7 C4         -1.0459   -2.5785    2.2606 C.3       1 <0>        -0.1343
      8 C5         -2.5362   -2.2771    2.4230 C.3       1 <0>        -0.0595
      9 C6         -3.0232   -2.4718    3.8405 C.3       1 <0>        -0.0244
     10 C7         -2.2092   -1.5925    4.7997 C.3       1 <0>        -0.1153
     11 C8         -2.6242   -0.1303    4.7061 C.3       1 <0>        -0.1202
     12 C9         -4.0789   -0.0310    5.1649 C.3       1 <0>        -0.1086
     13 C10        -4.9693   -0.7908    4.1765 C.3       1 <0>        -0.0474
     14 C11        -4.5149   -2.2193    3.9750 C.3       1 <0>        -0.0512
     15 C12        -5.3130   -2.9414    2.8987 C.3       1 <0>        -0.1063
     16 C13        -4.8127   -2.7335    1.4834 C.3       1 <0>        -0.1107
     17 C14        -3.3125   -3.0134    1.3415 C.3       1 <0>        -0.0304
     18 C15        -2.8570   -2.4579   -0.0126 C.3       1 <0>        -0.0621
     19 C16        -1.3541   -2.5071   -0.2493 C.3       1 <0>        -0.0223
     20 C17        -1.0677   -1.5996   -1.4668 C.3       1 <0>        -0.1003
     21 H2         -1.2350   -0.5631   -1.1910 H         1 <0>         0.1118
     22 C18        -1.9747   -1.9585   -2.6061 C.2       1 <0>        -0.2136
     23 C19        -3.0922   -2.6483   -2.4753 C.2       1 <0>        -0.0543
     24 C20        -3.5926   -3.1616   -1.1532 C.3       1 <0>        -0.1032
     25 C21        -1.5943   -1.5169   -3.9490 C.2       1 <0>         0.3591
     26 O3         -0.5735   -0.8818   -4.1122 O.2       1 <0>        -0.4501
     27 C22         0.3617   -1.7902   -1.9003 C.2       1 <0>         0.3515
     28 O4          1.1226   -0.8525   -1.9010 O.2       1 <0>        -0.4407
     29 C23        -0.8424   -3.9080   -0.6004 C.3       1 <0>        -0.1611
     30 C24        -3.1206   -4.5264    1.3870 C.3       1 <0>        -0.1571
     31 C25        -5.0456    0.0076    2.8764 C.3       1 <0>        -0.1449
     32 C26        -6.3876   -0.8097    4.7939 C.3       1 <0>        -0.1493
     33 C27        -2.7493   -3.9142    4.3287 C.3       1 <0>        -0.1561
     34 H3          1.1375    2.0374    2.0984 H         1 <0>         0.1012
     35 H4          0.0898    2.0857    0.6603 H         1 <0>         0.1004
     36 H5         -0.6295    1.9245    2.2804 H         1 <0>         0.0991
     37 H6         -0.8460   -3.6431    2.2633 H         1 <0>         0.0835
     38 H7         -0.4824   -2.1137    3.0741 H         1 <0>         0.0738
     39 H8         -2.6491   -1.1892    2.1922 H         1 <0>         0.0778
     40 H9         -2.3828   -1.9486    5.8218 H         1 <0>         0.0586
     41 H10        -1.1472   -1.6924    4.5842 H         1 <0>         0.0625
     42 H11        -1.9974    0.4705    5.3720 H         1 <0>         0.0560
     43 H12        -2.5114    0.2355    3.6906 H         1 <0>         0.0667
     44 H13        -4.1798   -0.4731    6.1555 H         1 <0>         0.0598
     45 H14        -4.3829    1.0144    5.1985 H         1 <0>         0.0607
     46 H15        -4.8004   -2.7466    4.9335 H         1 <0>         0.0530
     47 H16        -5.3171   -4.0196    3.1255 H         1 <0>         0.0564
     48 H17        -6.3677   -2.6331    2.9470 H         1 <0>         0.0608
     49 H18        -5.3420   -3.4482    0.8244 H         1 <0>         0.0549
     50 H19        -5.0412   -1.7451    1.1012 H         1 <0>         0.0680
     51 H20        -3.1638   -1.3887   -0.0370 H         1 <0>         0.0776
     52 H21        -3.6761   -2.8593   -3.3566 H         1 <0>         0.1256
     53 H22        -3.4557   -4.2362   -1.1267 H         1 <0>         0.0976
     54 H23        -4.6619   -2.9401   -1.0839 H         1 <0>         0.0892
     55 H24        -2.2223   -1.7564   -4.7943 H         1 <0>         0.1047
     56 H25         0.7063   -2.7655   -2.2108 H         1 <0>         0.0883
     57 H26        -1.0267   -4.5823    0.2359 H         1 <0>         0.0765
     58 H27        -1.3642   -4.2744   -1.4844 H         1 <0>         0.0737
     59 H28         0.2278   -3.8638   -0.8024 H         1 <0>         0.0601
     60 H29        -3.6870   -4.9395    2.2216 H         1 <0>         0.0645
     61 H30        -3.4748   -4.9657    0.4545 H         1 <0>         0.0590
     62 H31        -2.0628   -4.7547    1.5174 H         1 <0>         0.0613
     63 H32        -4.0443    0.1225    2.4613 H         1 <0>         0.0579
     64 H33        -5.6767   -0.5209    2.1619 H         1 <0>         0.0593
     65 H34        -5.4703    0.9910    3.0783 H         1 <0>         0.0496
     66 H35        -6.7385    0.2133    4.9294 H         1 <0>         0.0537
     67 H36        -7.0668   -1.3416    4.1276 H         1 <0>         0.0546
     68 H37        -6.3568   -1.3142    5.7596 H         1 <0>         0.0514
     69 H38        -1.7008   -4.1611    4.1624 H         1 <0>         0.0542
     70 H39        -2.9754   -3.9868    5.3925 H         1 <0>         0.0508
     71 H40        -3.3789   -4.6108    3.7751 H         1 <0>         0.0632
@<TRIPOS>BOND
     1    1    2 1
     2    1   34 1
     3    1   35 1
     4    1   36 1
     5    2    3 2
     6    2    4 1
     7    4    5 1
     8    5    6 1
     9    5   19 1
    10    5    7 1
    11    7    8 1
    12    7   37 1
    13    7   38 1
    14    8   17 1
    15    8    9 1
    16    8   39 1
    17    9   14 1
    18    9   10 1
    19    9   33 1
    20   10   11 1
    21   10   40 1
    22   10   41 1
    23   11   12 1
    24   11   42 1
    25   11   43 1
    26   12   13 1
    27   12   44 1
    28   12   45 1
    29   13   14 1
    30   13   31 1
    31   13   32 1
    32   14   15 1
    33   14   46 1
    34   15   16 1
    35   15   47 1
    36   15   48 1
    37   16   17 1
    38   16   49 1
    39   16   50 1
    40   17   18 1
    41   17   30 1
    42   18   24 1
    43   18   19 1
    44   18   51 1
    45   19   20 1
    46   19   29 1
    47   20   21 1
    48   20   22 1
    49   20   27 1
    50   22   23 2
    51   22   25 1
    52   23   24 1
    53   23   52 1
    54   24   53 1
    55   24   54 1
    56   25   26 2
    57   25   55 1
    58   27   28 2
    59   27   56 1
    60   29   57 1
    61   29   58 1
    62   29   59 1
    63   30   60 1
    64   30   61 1
    65   30   62 1
    66   31   63 1
    67   31   64 1
    68   31   65 1
    69   32   66 1
    70   32   67 1
    71   32   68 1
    72   33   69 1
    73   33   70 1
    74   33   71 1
@<TRIPOS>MOLECULE
CHEMBL292645__4
   71    74     0     0     0
SMALL
USER_CHARGES

@<TRIPOS>ATOM
      1 C1         -1.3414    0.8634   -1.3010 C.3       1 <0>        -0.1492
      2 C2         -1.2822   -0.6204   -1.0440 C.2       1 <0>         0.4605
      3 O1         -0.2957   -1.2476   -1.3495 O.2       1 <0>        -0.5102
      4 O2         -2.3254   -1.2452   -0.4756 O.3       1 <0>        -0.3413
      5 C3         -2.2010   -2.6482   -0.2620 C.3       1 <0>         0.0911
      6 H1         -1.5475   -3.0656   -1.0386 H         1 <0>         0.0865
      7 C4         -1.5794   -2.9220    1.1048 C.3       1 <0>        -0.1417
      8 C5         -1.2764   -4.4189    1.2404 C.3       1 <0>        -0.0526
      9 C6         -0.5504   -4.6263    2.5780 C.3       1 <0>        -0.0331
     10 C7          0.5024   -3.5113    2.7330 C.3       1 <0>        -0.1168
     11 C8          1.2300   -3.6877    4.0650 C.3       1 <0>        -0.1192
     12 C9          0.2490   -3.5335    5.2197 C.3       1 <0>        -0.1077
     13 C10        -0.9324   -4.4967    5.1144 C.3       1 <0>        -0.0469
     14 C11        -1.5355   -4.5135    3.7268 C.3       1 <0>        -0.0571
     15 C12        -2.6430   -5.5538    3.5730 C.3       1 <0>        -0.1160
     16 C13        -3.4336   -5.2003    2.3064 C.3       1 <0>        -0.1152
     17 C14        -2.5397   -5.2470    1.0730 C.3       1 <0>        -0.0329
     18 C15        -3.3368   -4.8433   -0.1671 C.3       1 <0>        -0.0632
     19 C16        -3.5649   -3.3485   -0.3403 C.3       1 <0>        -0.0263
     20 C17        -4.5045   -2.7824    0.7181 C.3       1 <0>        -0.0857
     21 H2         -3.9616   -2.5529    1.6318 H         1 <0>         0.1096
     22 C18        -5.6321   -3.7199    1.0348 C.2       1 <0>        -0.2151
     23 C19        -5.7062   -4.9636    0.6083 C.2       1 <0>        -0.0494
     24 C20        -4.6584   -5.5994   -0.2549 C.3       1 <0>        -0.0997
     25 C21        -6.7245   -3.2143    1.8687 C.2       1 <0>         0.3570
     26 O3         -6.6968   -2.0725    2.2779 O.2       1 <0>        -0.4468
     27 C22        -5.1254   -1.5002    0.2006 C.2       1 <0>         0.3550
     28 O4         -4.9543   -0.4634    0.7956 O.2       1 <0>        -0.4350
     29 C23        -4.1625   -3.0737   -1.7384 C.3       1 <0>        -0.1568
     30 C24        -2.1455   -6.7253    0.8239 C.3       1 <0>        -0.1596
     31 C25        -0.5225   -5.8852    5.6027 C.3       1 <0>        -0.1437
     32 C26        -2.0086   -3.9716    6.0981 C.3       1 <0>        -0.1498
     33 C27         0.2056   -5.9538    2.5599 C.3       1 <0>        -0.1519
     34 H3         -0.4101    1.1893   -1.7643 H         1 <0>         0.1017
     35 H4         -2.1753    1.0837   -1.9674 H         1 <0>         0.0995
     36 H5         -1.4815    1.3903   -0.3572 H         1 <0>         0.1014
     37 H6         -0.6417   -2.3614    1.1663 H         1 <0>         0.0764
     38 H7         -2.2413   -2.6050    1.9013 H         1 <0>         0.0785
     39 H8         -0.5721   -4.6894    0.4386 H         1 <0>         0.0697
     40 H9          1.2077   -3.5674    1.9099 H         1 <0>         0.0628
     41 H10        -0.0006   -2.5444    2.7400 H         1 <0>         0.0652
     42 H11         1.7441   -4.6403    4.1181 H         1 <0>         0.0669
     43 H12         1.9917   -2.8966    4.1464 H         1 <0>         0.0535
     44 H13         0.7727   -3.7168    6.1641 H         1 <0>         0.0591
     45 H14        -0.1301   -2.5062    5.2371 H         1 <0>         0.0574
     46 H15        -2.0418   -3.5209    3.6013 H         1 <0>         0.0583
     47 H16        -2.2422   -6.5563    3.5002 H         1 <0>         0.0678
     48 H17        -3.3275   -5.5069    4.4235 H         1 <0>         0.0608
     49 H18        -4.2509   -5.9164    2.1967 H         1 <0>         0.0639
     50 H19        -3.8465   -4.1995    2.4305 H         1 <0>         0.0690
     51 H20        -2.7314   -5.1788   -1.0409 H         1 <0>         0.0752
     52 H21        -6.5629   -5.5557    0.8940 H         1 <0>         0.1251
     53 H22        -5.0062   -5.5998   -1.2926 H         1 <0>         0.0906
     54 H23        -4.5375   -6.6373    0.0469 H         1 <0>         0.0940
     55 H24        -7.5549   -3.8578    2.1194 H         1 <0>         0.1024
     56 H25        -5.7208   -1.5139   -0.7004 H         1 <0>         0.0841
     57 H26        -3.4929   -3.4668   -2.5034 H         1 <0>         0.0630
     58 H27        -5.1340   -3.5612   -1.8205 H         1 <0>         0.0684
     59 H28        -4.2823   -1.9993   -1.8776 H         1 <0>         0.0646
     60 H29        -1.7155   -7.1449    1.7335 H         1 <0>         0.0693
     61 H30        -3.0314   -7.2954    0.5443 H         1 <0>         0.0578
     62 H31        -1.4123   -6.7751    0.0189 H         1 <0>         0.0542
     63 H32        -0.3052   -5.8455    6.6701 H         1 <0>         0.0510
     64 H33        -1.3360   -6.5882    5.4235 H         1 <0>         0.0556
     65 H34         0.3661   -6.2125    5.0629 H         1 <0>         0.0583
     66 H35        -2.3002   -2.9611    5.8120 H         1 <0>         0.0513
     67 H36        -2.8807   -4.6246    6.0651 H         1 <0>         0.0547
     68 H37        -1.6017   -3.9597    7.1093 H         1 <0>         0.0532
     69 H38         0.7373   -6.0563    1.6139 H         1 <0>         0.0520
     70 H39         0.9202   -5.9762    3.3827 H         1 <0>         0.0636
     71 H40        -0.5014   -6.7761    2.6703 H         1 <0>         0.0629
@<TRIPOS>BOND
     1    1    2 1
     2    1   34 1
     3    1   35 1
     4    1   36 1
     5    2    3 2
     6    2    4 1
     7    4    5 1
     8    5    6 1
     9    5   19 1
    10    5    7 1
    11    7    8 1
    12    7   37 1
    13    7   38 1
    14    8   17 1
    15    8    9 1
    16    8   39 1
    17    9   14 1
    18    9   10 1
    19    9   33 1
    20   10   11 1
    21   10   40 1
    22   10   41 1
    23   11   12 1
    24   11   42 1
    25   11   43 1
    26   12   13 1
    27   12   44 1
    28   12   45 1
    29   13   14 1
    30   13   31 1
    31   13   32 1
    32   14   15 1
    33   14   46 1
    34   15   16 1
    35   15   47 1
    36   15   48 1
    37   16   17 1
    38   16   49 1
    39   16   50 1
    40   17   18 1
    41   17   30 1
    42   18   24 1
    43   18   19 1
    44   18   51 1
    45   19   20 1
    46   19   29 1
    47   20   21 1
    48   20   22 1
    49   20   27 1
    50   22   23 2
    51   22   25 1
    52   23   24 1
    53   23   52 1
    54   24   53 1
    55   24   54 1
    56   25   26 2
    57   25   55 1
    58   27   28 2
    59   27   56 1
    60   29   57 1
    61   29   58 1
    62   29   59 1
    63   30   60 1
    64   30   61 1
    65   30   62 1
    66   31   63 1
    67   31   64 1
    68   31   65 1
    69   32   66 1
    70   32   67 1
    71   32   68 1
    72   33   69 1
    73   33   70 1
    74   33   71 1
@<TRIPOS>MOLECULE
CHEMBL292645__5
   71    74     0     0     0
SMALL
USER_CHARGES

@<TRIPOS>ATOM
      1 C1         -0.5809    2.3407    0.0683 C.3       1 <0>        -0.1487
      2 C2         -0.7173    0.8790   -0.2722 C.2       1 <0>         0.4582
      3 O1          0.1451    0.3246   -0.9116 O.2       1 <0>        -0.5075
      4 O2         -1.7969    0.1930    0.1348 O.3       1 <0>        -0.3466
      5 C3         -1.8607   -1.1937   -0.2249 C.3       1 <0>         0.1003
      6 H1         -1.3261   -1.3188   -1.1758 H         1 <0>         0.0777
      7 C4         -1.1514   -2.0107    0.8354 C.3       1 <0>        -0.1341
      8 C5         -2.0614   -2.9147    1.6636 C.3       1 <0>        -0.0540
      9 C6         -1.2060   -3.4139    2.8482 C.3       1 <0>        -0.0387
     10 C7          0.1691   -3.8309    2.2857 C.3       1 <0>        -0.1190
     11 C8          1.0502   -4.3194    3.4330 C.3       1 <0>        -0.1190
     12 C9          1.2918   -3.2006    4.4355 C.3       1 <0>        -0.1073
     13 C10        -0.0047   -2.5798    4.9549 C.3       1 <0>        -0.0472
     14 C11        -0.9847   -2.2881    3.8397 C.3       1 <0>        -0.0581
     15 C12        -2.3220   -1.7492    4.3398 C.3       1 <0>        -0.1140
     16 C13        -3.0598   -1.1436    3.1417 C.3       1 <0>        -0.1108
     17 C14        -3.3395   -2.2180    2.0786 C.3       1 <0>        -0.0299
     18 C15        -4.0518   -1.5173    0.9183 C.3       1 <0>        -0.0636
     19 C16        -3.3183   -1.6034   -0.4125 C.3       1 <0>        -0.0232
     20 C17        -3.9656   -0.5958   -1.3820 C.3       1 <0>        -0.0999
     21 H2         -3.6854    0.4147   -1.0946 H         1 <0>         0.1092
     22 C18        -5.4591   -0.7152   -1.3632 C.2       1 <0>        -0.2141
     23 C19        -6.1380   -1.3431   -0.4244 C.2       1 <0>        -0.0588
     24 C20        -5.4837   -2.0251    0.7500 C.3       1 <0>        -0.0971
     25 C21        -6.2103   -0.1009   -2.4604 C.2       1 <0>         0.3587
     26 O3         -5.6217    0.4819   -3.3469 O.2       1 <0>        -0.4501
     27 C22        -3.4746   -0.8711   -2.7813 C.2       1 <0>         0.3493
     28 O4         -2.8779   -0.0163   -3.3909 O.2       1 <0>        -0.4393
     29 C23        -3.4101   -2.9920   -1.0482 C.3       1 <0>        -0.1577
     30 C24        -4.3359   -3.2153    2.6966 C.3       1 <0>        -0.1599
     31 C25         0.3933   -1.2319    5.6078 C.3       1 <0>        -0.1499
     32 C26        -0.6005   -3.4485    6.0613 C.3       1 <0>        -0.1438
     33 C27        -1.8304   -4.6624    3.4636 C.3       1 <0>        -0.1510
     34 H3          0.3526    2.7241   -0.3435 H         1 <0>         0.1012
     35 H4         -1.4193    2.8925   -0.3568 H         1 <0>         0.0999
     36 H5         -0.5775    2.4626    1.1514 H         1 <0>         0.0991
     37 H6         -0.3992   -2.6418    0.3358 H         1 <0>         0.0752
     38 H7         -0.6078   -1.3330    1.5035 H         1 <0>         0.0776
     39 H8         -2.3074   -3.8125    1.0758 H         1 <0>         0.0765
     40 H9          0.0262   -4.6265    1.5593 H         1 <0>         0.0620
     41 H10         0.6401   -2.9691    1.8159 H         1 <0>         0.0662
     42 H11         0.6261   -5.1916    3.9194 H         1 <0>         0.0667
     43 H12         2.0219   -4.6241    3.0109 H         1 <0>         0.0529
     44 H13         1.8562   -3.5984    5.2874 H         1 <0>         0.0587
     45 H14         1.8982   -2.4176    3.9668 H         1 <0>         0.0568
     46 H15        -0.5292   -1.4442    3.2567 H         1 <0>         0.0585
     47 H16        -2.9154   -2.5272    4.8023 H         1 <0>         0.0684
     48 H17        -2.1567   -0.9545    5.0733 H         1 <0>         0.0599
     49 H18        -4.0066   -0.7192    3.4760 H         1 <0>         0.0601
     50 H19        -2.4477   -0.3573    2.6999 H         1 <0>         0.0653
     51 H20        -4.1208   -0.4403    1.1910 H         1 <0>         0.0810
     52 H21        -7.2119   -1.3768   -0.4930 H         1 <0>         0.1254
     53 H22        -5.5183   -3.0929    0.5556 H         1 <0>         0.0967
     54 H23        -6.0804   -1.7717    1.6289 H         1 <0>         0.0910
     55 H24        -7.2881   -0.1668   -2.4802 H         1 <0>         0.1047
     56 H25        -3.6566   -1.8327   -3.2381 H         1 <0>         0.0896
     57 H26        -3.0439   -3.7390   -0.3439 H         1 <0>         0.0772
     58 H27        -4.4483   -3.2083   -1.3001 H         1 <0>         0.0729
     59 H28        -2.8036   -3.0180   -1.9535 H         1 <0>         0.0600
     60 H29        -3.9513   -3.5673    3.6538 H         1 <0>         0.0674
     61 H30        -5.2958   -2.7221    2.8499 H         1 <0>         0.0616
     62 H31        -4.4663   -4.0629    2.0237 H         1 <0>         0.0547
     63 H32         0.8635   -0.5915    4.8616 H         1 <0>         0.0502
     64 H33        -0.4976   -0.7406    5.9989 H         1 <0>         0.0554
     65 H34         1.0941   -1.4157    6.4223 H         1 <0>         0.0531
     66 H35         0.0524   -3.4240    6.9338 H         1 <0>         0.0509
     67 H36        -1.5845   -3.0665    6.3330 H         1 <0>         0.0560
     68 H37        -0.6944   -4.4748    5.7065 H         1 <0>         0.0582
     69 H38        -2.1629   -5.3313    2.6699 H         1 <0>         0.0522
     70 H39        -1.0910   -5.1714    4.0819 H         1 <0>         0.0629
     71 H40        -2.6836   -4.3763    4.0788 H         1 <0>         0.0636
@<TRIPOS>BOND
     1    1    2 1
     2    1   34 1
     3    1   35 1
     4    1   36 1
     5    2    3 2
     6    2    4 1
     7    4    5 1
     8    5    6 1
     9    5   19 1
    10    5    7 1
    11    7    8 1
    12    7   37 1
    13    7   38 1
    14    8   17 1
    15    8    9 1
    16    8   39 1
    17    9   14 1
    18    9   10 1
    19    9   33 1
    20   10   11 1
    21   10   40 1
    22   10   41 1
    23   11   12 1
    24   11   42 1
    25   11   43 1
    26   12   13 1
    27   12   44 1
    28   12   45 1
    29   13   14 1
    30   13   31 1
    31   13   32 1
    32   14   15 1
    33   14   46 1
    34   15   16 1
    35   15   47 1
    36   15   48 1
    37   16   17 1
    38   16   49 1
    39   16   50 1
    40   17   18 1
    41   17   30 1
    42   18   24 1
    43   18   19 1
    44   18   51 1
    45   19   20 1
    46   19   29 1
    47   20   21 1
    48   20   22 1
    49   20   27 1
    50   22   23 2
    51   22   25 1
    52   23   24 1
    53   23   52 1
    54   24   53 1
    55   24   54 1
    56   25   26 2
    57   25   55 1
    58   27   28 2
    59   27   56 1
    60   29   57 1
    61   29   58 1
    62   29   59 1
    63   30   60 1
    64   30   61 1
    65   30   62 1
    66   31   63 1
    67   31   64 1
    68   31   65 1
    69   32   66 1
    70   32   67 1
    71   32   68 1
    72   33   69 1
    73   33   70 1
    74   33   71 1
@<TRIPOS>MOLECULE
CHEMBL292645__6
   71    74     0     0     0
SMALL
USER_CHARGES

@<TRIPOS>ATOM
      1 C1         -0.6891    1.7351   -1.7612 C.3       1 <0>        -0.1507
      2 C2         -0.2999    0.2981   -1.5279 C.2       1 <0>         0.4550
      3 O1          0.7718   -0.1075   -1.9113 O.2       1 <0>        -0.5100
      4 O2         -1.1438   -0.5314   -0.8942 O.3       1 <0>        -0.3261
      5 C3         -0.7123   -1.8722   -0.7085 C.3       1 <0>         0.1048
      6 H1         -0.0385   -2.1018   -1.5691 H         1 <0>         0.0731
      7 C4          0.1120   -2.0497    0.5495 C.3       1 <0>        -0.1241
      8 C5         -0.6762   -2.1936    1.8429 C.3       1 <0>        -0.0557
      9 C6         -0.7900   -0.8648    2.5842 C.3       1 <0>        -0.0245
     10 C7         -1.0946    0.2567    1.5998 C.3       1 <0>        -0.1126
     11 C8         -1.2464    1.6043    2.3062 C.3       1 <0>        -0.1249
     12 C9         -2.3802    1.4987    3.3222 C.3       1 <0>        -0.1055
     13 C10        -2.0307    0.4648    4.3886 C.3       1 <0>        -0.0511
     14 C11        -1.7195   -0.8999    3.7820 C.3       1 <0>        -0.0453
     15 C12        -3.0182   -1.6385    3.4895 C.3       1 <0>        -0.1207
     16 C13        -2.7911   -3.0316    2.9437 C.3       1 <0>        -0.1113
     17 C14        -1.8605   -3.1040    1.7344 C.3       1 <0>        -0.0296
     18 C15        -2.6914   -2.9254    0.4563 C.3       1 <0>        -0.0523
     19 C16        -1.8741   -2.8472   -0.8112 C.3       1 <0>        -0.0192
     20 C17        -2.7390   -2.4893   -2.0326 C.3       1 <0>        -0.0942
     21 H2         -2.0703   -2.2597   -2.8676 H         1 <0>         0.1014
     22 C18        -3.6106   -1.3076   -1.7649 C.2       1 <0>        -0.2115
     23 C19        -3.9935   -0.9757   -0.5513 C.2       1 <0>        -0.0340
     24 C20        -3.6064   -1.7219    0.6765 C.3       1 <0>        -0.1241
     25 C21        -4.0477   -0.4841   -2.8899 C.2       1 <0>         0.3629
     26 O3         -3.7018   -0.7657   -4.0182 O.2       1 <0>        -0.4544
     27 C22        -3.5888   -3.6799   -2.4016 C.2       1 <0>         0.3547
     28 O4         -3.4830   -4.1815   -3.4950 O.2       1 <0>        -0.4464
     29 C23        -1.2885   -4.2321   -1.1845 C.3       1 <0>        -0.1646
     30 C24        -1.3286   -4.5679    1.7902 C.3       1 <0>        -0.1590
     31 C25        -3.2437    0.3646    5.3396 C.3       1 <0>        -0.1484
     32 C26        -0.8692    0.9768    5.2516 C.3       1 <0>        -0.1494
     33 C27         0.6527   -0.6096    3.1167 C.3       1 <0>        -0.1635
     34 H3          0.1163    2.2491   -2.2858 H         1 <0>         0.1005
     35 H4         -1.5969    1.7725   -2.3634 H         1 <0>         0.0967
     36 H5         -0.8682    2.2232   -0.8032 H         1 <0>         0.1007
     37 H6          0.7535   -2.9397    0.4349 H         1 <0>         0.0722
     38 H7          0.8122   -1.2071    0.6278 H         1 <0>         0.0764
     39 H8          0.0466   -2.7769    2.5107 H         1 <0>         0.0552
     40 H9         -0.2416    0.3497    0.9092 H         1 <0>         0.0526
     41 H10        -1.9910    0.0585    1.0246 H         1 <0>         0.0868
     42 H11        -0.3203    1.9068    2.7787 H         1 <0>         0.0632
     43 H12        -1.5175    2.3627    1.5605 H         1 <0>         0.0541
     44 H13        -2.5384    2.4707    3.7924 H         1 <0>         0.0579
     45 H14        -3.2978    1.2038    2.8097 H         1 <0>         0.0611
     46 H15        -1.1961   -1.4808    4.5757 H         1 <0>         0.0604
     47 H16        -3.5521   -1.8189    4.4499 H         1 <0>         0.0561
     48 H17        -3.6889   -1.0532    2.8773 H         1 <0>         0.0745
     49 H18        -2.3702   -3.6664    3.7389 H         1 <0>         0.0609
     50 H19        -3.7565   -3.4764    2.6657 H         1 <0>         0.0634
     51 H20        -3.3562   -3.8236    0.3901 H         1 <0>         0.0717
     52 H21        -4.6254   -0.1001   -0.4426 H         1 <0>         0.1218
     53 H22        -4.5233   -2.0773    1.1709 H         1 <0>         0.0859
     54 H23        -3.1186   -1.0299    1.3631 H         1 <0>         0.1189
     55 H24        -4.6786    0.3752   -2.7171 H         1 <0>         0.0997
     56 H25        -4.2917   -4.0836   -1.6880 H         1 <0>         0.0922
     57 H26        -0.4549   -4.4647   -0.5218 H         1 <0>         0.0757
     58 H27        -2.0608   -4.9938   -1.0779 H         1 <0>         0.0659
     59 H28        -0.9378   -4.2121   -2.2163 H         1 <0>         0.0650
     60 H29        -0.9509   -4.7794    2.7905 H         1 <0>         0.0566
     61 H30        -2.1387   -5.2580    1.5542 H         1 <0>         0.0568
     62 H31        -0.5243   -4.6901    1.0647 H         1 <0>         0.0604
     63 H32        -4.1228    0.0527    4.7757 H         1 <0>         0.0564
     64 H33        -3.0342   -0.3670    6.1199 H         1 <0>         0.0523
     65 H34        -3.4302    1.3376    5.7944 H         1 <0>         0.0531
     66 H35        -1.2085    1.8189    5.8548 H         1 <0>         0.0531
     67 H36        -0.5229    0.1770    5.9062 H         1 <0>         0.0526
     68 H37        -0.0515    1.2981    4.6065 H         1 <0>         0.0617
     69 H38         1.3640   -0.6976    2.2954 H         1 <0>         0.0520
     70 H39         0.7111    0.3922    3.5421 H         1 <0>         0.0654
     71 H40         0.8919   -1.3451    3.8848 H         1 <0>         0.0515
@<TRIPOS>BOND
     1    1    2 1
     2    1   34 1
     3    1   35 1
     4    1   36 1
     5    2    3 2
     6    2    4 1
     7    4    5 1
     8    5    6 1
     9    5   19 1
    10    5    7 1
    11    7    8 1
    12    7   37 1
    13    7   38 1
    14    8   17 1
    15    8    9 1
    16    8   39 1
    17    9   14 1
    18    9   10 1
    19    9   33 1
    20   10   11 1
    21   10   40 1
    22   10   41 1
    23   11   12 1
    24   11   42 1
    25   11   43 1
    26   12   13 1
    27   12   44 1
    28   12   45 1
    29   13   14 1
    30   13   31 1
    31   13   32 1
    32   14   15 1
    33   14   46 1
    34   15   16 1
    35   15   47 1
    36   15   48 1
    37   16   17 1
    38   16   49 1
    39   16   50 1
    40   17   18 1
    41   17   30 1
    42   18   24 1
    43   18   19 1
    44   18   51 1
    45   19   20 1
    46   19   29 1
    47   20   21 1
    48   20   22 1
    49   20   27 1
    50   22   23 2
    51   22   25 1
    52   23   24 1
    53   23   52 1
    54   24   53 1
    55   24   54 1
    56   25   26 2
    57   25   55 1
    58   27   28 2
    59   27   56 1
    60   29   57 1
    61   29   58 1
    62   29   59 1
    63   30   60 1
    64   30   61 1
    65   30   62 1
    66   31   63 1
    67   31   64 1
    68   31   65 1
    69   32   66 1
    70   32   67 1
    71   32   68 1
    72   33   69 1
    73   33   70 1
    74   33   71 1
@<TRIPOS>MOLECULE
CHEMBL292645__7
   71    74     0     0     0
SMALL
USER_CHARGES

@<TRIPOS>ATOM
      1 C1         -2.5016    4.0612    0.2501 C.3       1 <0>        -0.1498
      2 C2         -1.8039    2.7656   -0.0748 C.2       1 <0>         0.4631
      3 O1         -0.6298    2.7666   -0.3599 O.2       1 <0>        -0.5127
      4 O2         -2.4869    1.6103   -0.0475 O.3       1 <0>        -0.3373
      5 C3         -1.7626    0.4211   -0.3661 C.3       1 <0>         0.0986
      6 H1         -0.9659    0.7534   -1.0812 H         1 <0>         0.0699
      7 C4         -1.0354   -0.1196    0.8402 C.3       1 <0>        -0.1220
      8 C5         -1.7480   -1.1694    1.6752 C.3       1 <0>        -0.0563
      9 C6         -2.5377   -0.5597    2.8314 C.3       1 <0>        -0.0306
     10 C7         -3.3792    0.6122    2.3325 C.3       1 <0>        -0.1059
     11 C8         -4.2116    1.2250    3.4567 C.3       1 <0>        -0.1216
     12 C9         -5.1377    0.1705    4.0531 C.3       1 <0>        -0.1056
     13 C10        -4.3201   -0.9868    4.6238 C.3       1 <0>        -0.0508
     14 C11        -3.3984   -1.5791    3.5698 C.3       1 <0>        -0.0472
     15 C12        -4.2303   -2.3547    2.5392 C.3       1 <0>        -0.1239
     16 C13        -3.2662   -3.1646    1.6713 C.3       1 <0>        -0.1164
     17 C14        -2.4403   -2.1995    0.8100 C.3       1 <0>        -0.0333
     18 C15        -3.3375   -1.5467   -0.2230 C.3       1 <0>        -0.0610
     19 C16        -2.6346   -0.5559   -1.1373 C.3       1 <0>        -0.0193
     20 C17        -3.7373    0.2498   -1.8654 C.3       1 <0>        -0.0958
     21 H2         -4.2193    0.9237   -1.1659 H         1 <0>         0.1169
     22 C18        -4.7666   -0.6731   -2.4464 C.2       1 <0>        -0.2140
     23 C19        -4.9169   -1.9358   -2.0957 C.2       1 <0>        -0.0550
     24 C20        -4.0635   -2.6076   -1.0569 C.3       1 <0>        -0.1045
     25 C21        -5.6647   -0.1346   -3.4699 C.2       1 <0>         0.3587
     26 O3         -5.5608    1.0224   -3.8201 O.2       1 <0>        -0.4492
     27 C22        -3.1068    1.0332   -2.9882 C.2       1 <0>         0.3511
     28 O4         -3.1853    2.2381   -3.0022 O.2       1 <0>        -0.4397
     29 C23        -1.8006   -1.2333   -2.2341 C.3       1 <0>        -0.1648
     30 C24        -1.3531   -3.0731    0.1533 C.3       1 <0>        -0.1547
     31 C25        -5.3194   -2.0577    5.1165 C.3       1 <0>        -0.1488
     32 C26        -3.5698   -0.5263    5.8775 C.3       1 <0>        -0.1476
     33 C27        -1.4630   -0.0041    3.7957 C.3       1 <0>        -0.1604
     34 H3         -1.7913    4.8847    0.1764 H         1 <0>         0.0997
     35 H4         -3.3177    4.2211   -0.4545 H         1 <0>         0.1033
     36 H5         -2.9003    4.0150    1.2635 H         1 <0>         0.0983
     37 H6         -0.0707   -0.5483    0.5021 H         1 <0>         0.0707
     38 H7         -0.7463    0.7327    1.4770 H         1 <0>         0.0750
     39 H8         -0.9174   -1.7391    2.1861 H         1 <0>         0.0591
     40 H9         -2.6940    1.3939    1.9808 H         1 <0>         0.0642
     41 H10        -4.0308    0.2966    1.5247 H         1 <0>         0.0693
     42 H11        -3.5711    1.6567    4.2187 H         1 <0>         0.0611
     43 H12        -4.8251    2.0323    3.0337 H         1 <0>         0.0541
     44 H13        -5.7357    0.6185    4.8498 H         1 <0>         0.0565
     45 H14        -5.8087   -0.2069    3.2784 H         1 <0>         0.0603
     46 H15        -2.7271   -2.3005    4.0629 H         1 <0>         0.0618
     47 H16        -4.9151   -3.0588    2.9973 H         1 <0>         0.0668
     48 H17        -4.7845   -1.6526    1.9198 H         1 <0>         0.0677
     49 H18        -2.5915   -3.7322    2.3152 H         1 <0>         0.0634
     50 H19        -3.8201   -3.8494    1.0363 H         1 <0>         0.0680
     51 H20        -4.1291   -0.9836    0.3223 H         1 <0>         0.0860
     52 H21        -5.6897   -2.5166   -2.5725 H         1 <0>         0.1252
     53 H22        -3.3689   -3.2795   -1.5437 H         1 <0>         0.0960
     54 H23        -4.7229   -3.1859   -0.4025 H         1 <0>         0.0905
     55 H24        -6.4195   -0.7673   -3.9130 H         1 <0>         0.1039
     56 H25        -2.5847    0.5168   -3.7802 H         1 <0>         0.0869
     57 H26        -0.9859   -1.7946   -1.7766 H         1 <0>         0.0760
     58 H27        -2.4339   -1.9123   -2.8050 H         1 <0>         0.0737
     59 H28        -1.3898   -0.4738   -2.8994 H         1 <0>         0.0597
     60 H29        -0.8742   -3.6899    0.9138 H         1 <0>         0.0565
     61 H30        -1.8090   -3.7148   -0.6007 H         1 <0>         0.0597
     62 H31        -0.6074   -2.4325   -0.3174 H         1 <0>         0.0598
     63 H32        -5.9300   -2.3972    4.2799 H         1 <0>         0.0566
     64 H33        -4.7706   -2.9027    5.5323 H         1 <0>         0.0519
     65 H34        -5.9623   -1.6285    5.8850 H         1 <0>         0.0527
     66 H35        -4.2768   -0.3962    6.6969 H         1 <0>         0.0525
     67 H36        -2.8282   -1.2762    6.1531 H         1 <0>         0.0524
     68 H37        -3.0704    0.4211    5.6747 H         1 <0>         0.0610
     69 H38        -0.7570    0.6108    3.2374 H         1 <0>         0.0518
     70 H39        -1.9430    0.6012    4.5647 H         1 <0>         0.0663
     71 H40        -0.9319   -0.8326    4.2642 H         1 <0>         0.0515
@<TRIPOS>BOND
     1    1    2 1
     2    1   34 1
     3    1   35 1
     4    1   36 1
     5    2    3 2
     6    2    4 1
     7    4    5 1
     8    5    6 1
     9    5   19 1
    10    5    7 1
    11    7    8 1
    12    7   37 1
    13    7   38 1
    14    8   17 1
    15    8    9 1
    16    8   39 1
    17    9   14 1
    18    9   10 1
    19    9   33 1
    20   10   11 1
    21   10   40 1
    22   10   41 1
    23   11   12 1
    24   11   42 1
    25   11   43 1
    26   12   13 1
    27   12   44 1
    28   12   45 1
    29   13   14 1
    30   13   31 1
    31   13   32 1
    32   14   15 1
    33   14   46 1
    34   15   16 1
    35   15   47 1
    36   15   48 1
    37   16   17 1
    38   16   49 1
    39   16   50 1
    40   17   18 1
    41   17   30 1
    42   18   24 1
    43   18   19 1
    44   18   51 1
    45   19   20 1
    46   19   29 1
    47   20   21 1
    48   20   22 1
    49   20   27 1
    50   22   23 2
    51   22   25 1
    52   23   24 1
    53   23   52 1
    54   24   53 1
    55   24   54 1
    56   25   26 2
    57   25   55 1
    58   27   28 2
    59   27   56 1
    60   29   57 1
    61   29   58 1
    62   29   59 1
    63   30   60 1
    64   30   61 1
    65   30   62 1
    66   31   63 1
    67   31   64 1
    68   31   65 1
    69   32   66 1
    70   32   67 1
    71   32   68 1
    72   33   69 1
    73   33   70 1
    74   33   71 1
@<TRIPOS>MOLECULE
CHEMBL179118
   51    54     0     0     0
SMALL
USER_CHARGES

@<TRIPOS>ATOM
      1 C1          0.1320    1.1227   -0.2972 C.3       1 <0>        -0.1000
      2 C2          0.0729   -0.3645   -0.0609 C.2       1 <0>         0.1164
      3 C3         -0.0480   -1.3246   -1.0482 C.2       1 <0>        -0.2113
      4 C4         -0.0636   -2.6263   -0.3535 C.ar      1 <0>        -0.0927
      5 C5         -0.1625   -3.9520   -0.7791 C.ar      1 <0>         0.1907
      6 C6         -0.1465   -4.9700    0.1556 C.ar      1 <0>        -0.2341
      7 C7         -0.0332   -4.6822    1.5106 C.ar      1 <0>        -0.0300
      8 C8          0.0648   -3.3756    1.9401 C.ar      1 <0>        -0.1673
      9 C9          0.0507   -2.3346    1.0122 C.ar      1 <0>         0.1510
     10 N1          0.1356   -0.9623    1.1430 N.pl3     1 <0>        -0.4569
     11 C10         0.2723   -0.2543    2.4182 C.3       1 <0>         0.1467
     12 C11         1.7261    0.0541    2.6683 C.ar      1 <0>        -0.1464
     13 C12         2.5120   -0.8410    3.3695 C.ar      1 <0>        -0.0739
     14 C13         3.8455   -0.5584    3.5989 C.ar      1 <0>        -0.1296
     15 C14         4.3947    0.6196    3.1275 C.ar      1 <0>        -0.0825
     16 C15         3.6111    1.5157    2.4259 C.ar      1 <0>        -0.1550
     17 C16         2.2764    1.2313    2.1909 C.ar      1 <0>         0.1156
     18 F1          1.5104    2.1045    1.5009 F         1 <0>        -0.1317
     19 C17         0.1758   -3.3378    3.4496 C.3       1 <0>        -0.0692
     20 C18        -0.3032   -4.7260    3.9243 C.3       1 <0>        -0.1171
     21 C19         0.0058   -5.6165    2.7024 C.3       1 <0>        -0.0789
     22 O1         -0.2740   -4.2395   -2.1023 O.3       1 <0>        -0.2754
     23 C20        -0.3707   -5.6195   -2.4605 C.3       1 <0>        -0.0072
     24 C21        -0.4866   -5.7430   -3.9579 C.2       1 <0>         0.5024
     25 O2         -0.4864   -4.7419   -4.6539 O.co2     1 <0>        -0.6683
     26 O3         -0.5805   -6.8438   -4.4734 O.co2     1 <0>        -0.6884
     27 C22        -0.1419   -1.0964   -2.4892 C.2       1 <0>         0.4455
     28 O4         -1.2208   -0.8638   -2.9987 O.2       1 <0>        -0.4102
     29 C23         1.0860   -1.1489   -3.3341 C.2       1 <0>         0.4978
     30 O5          2.1478   -1.4719   -2.8423 O.2       1 <0>        -0.5071
     31 N2          1.0168   -0.8376   -4.6436 N.am      1 <0>        -0.8256
     32 H1          1.1724    1.4356   -0.3850 H         1 <0>         0.0870
     33 H2         -0.3995    1.3658   -1.2173 H         1 <0>         0.0788
     34 H3         -0.3343    1.6423    0.5399 H         1 <0>         0.0786
     35 H4         -0.2230   -5.9971   -0.1694 H         1 <0>         0.1295
     36 H5         -0.2950    0.6757    2.3801 H         1 <0>         0.0997
     37 H6         -0.1101   -0.8804    3.2243 H         1 <0>         0.1083
     38 H7          2.0840   -1.7613    3.7385 H         1 <0>         0.1375
     39 H8          4.4587   -1.2582    4.1472 H         1 <0>         0.1318
     40 H9          5.4366    0.8397    3.3080 H         1 <0>         0.1338
     41 H10         4.0403    2.4360    2.0580 H         1 <0>         0.1372
     42 H11         1.2108   -3.1721    3.7487 H         1 <0>         0.0706
     43 H12        -0.4661   -2.5566    3.8567 H         1 <0>         0.0634
     44 H13         0.2627   -5.0542    4.7962 H         1 <0>         0.0739
     45 H14        -1.3724   -4.7157    4.1360 H         1 <0>         0.0719
     46 H15        -0.7520   -6.3931    2.5991 H         1 <0>         0.0755
     47 H16         0.9952   -6.0632    2.8005 H         1 <0>         0.0801
     48 H17         0.5208   -6.1465   -2.1204 H         1 <0>         0.0603
     49 H18        -1.2521   -6.0559   -1.9906 H         1 <0>         0.0603
     50 H19         0.1683   -0.5794   -5.0365 H         1 <0>         0.4091
     51 H20         1.8154   -0.8717   -5.1931 H         1 <0>         0.4054
@<TRIPOS>BOND
     1    1    2 1
     2    1   32 1
     3    1   33 1
     4    1   34 1
     5    2   10 1
     6    2    3 2
     7    3    4 1
     8    3   27 1
     9    4    9 ar
    10    4    5 ar
    11    5    6 ar
    12    5   22 1
    13    6    7 ar
    14    6   35 1
    15    7   21 1
    16    7    8 ar
    17    8    9 ar
    18    8   19 1
    19    9   10 1
    20   10   11 1
    21   11   12 1
    22   11   36 1
    23   11   37 1
    24   12   17 ar
    25   12   13 ar
    26   13   14 ar
    27   13   38 1
    28   14   15 ar
    29   14   39 1
    30   15   16 ar
    31   15   40 1
    32   16   17 ar
    33   16   41 1
    34   17   18 1
    35   19   20 1
    36   19   42 1
    37   19   43 1
    38   20   21 1
    39   20   44 1
    40   20   45 1
    41   21   46 1
    42   21   47 1
    43   22   23 1
    44   23   24 1
    45   23   48 1
    46   23   49 1
    47   24   25 2
    48   24   26 1
    49   27   28 2
    50   27   29 1
    51   29   30 2
    52   29   31 am
    53   31   50 1
    54   31   51 1
@<TRIPOS>MOLECULE
CHEMBL418936
   72    74     0     0     0
SMALL
USER_CHARGES

@<TRIPOS>ATOM
      1 C1         -7.2611   -4.2349   -0.4220 C.3       1 <0>        -0.1533
      2 C2         -5.7765   -4.5969   -0.3453 C.3       1 <0>        -0.1259
      3 C3         -5.3652   -5.3360   -1.6202 C.3       1 <0>        -0.1214
      4 C4         -3.8806   -5.6981   -1.5435 C.3       1 <0>        -0.1207
      5 C5         -3.4694   -6.4372   -2.8184 C.3       1 <0>        -0.1207
      6 C6         -1.9848   -6.7992   -2.7417 C.3       1 <0>        -0.1200
      7 C7         -1.5735   -7.5383   -4.0166 C.3       1 <0>        -0.1203
      8 C8         -0.0890   -7.9003   -3.9399 C.3       1 <0>        -0.1189
      9 C9          0.3223   -8.6394   -5.2148 C.3       1 <0>        -0.1196
     10 C10         1.8069   -9.0015   -5.1381 C.3       1 <0>        -0.1072
     11 C11         2.2182   -9.7406   -6.4130 C.3       1 <0>        -0.1581
     12 C12         3.6804  -10.0972   -6.3374 C.2       1 <0>         0.4652
     13 O1          4.3511   -9.7117   -5.4033 O.2       1 <0>        -0.4574
     14 C13         4.2933  -10.9115   -7.3948 C.2       1 <0>        -0.2473
     15 C14         4.2986  -12.3778   -7.4878 C.ar      1 <0>        -0.0758
     16 C15         3.7795  -13.3980   -6.6885 C.ar      1 <0>        -0.0793
     17 C16         3.9556  -14.7023   -7.0535 C.ar      1 <0>        -0.1493
     18 C17         4.6478  -15.0219   -8.2149 C.ar      1 <0>        -0.1158
     19 C18         5.1684  -14.0328   -9.0177 C.ar      1 <0>        -0.1181
     20 C19         5.0009  -12.6941   -8.6658 C.ar      1 <0>         0.0847
     21 N1          5.3971  -11.5173   -9.2524 N.pl3     1 <0>        -0.4420
     22 C20         4.9792  -10.4499   -8.5111 C.2       1 <0>         0.0970
     23 C21         5.2204   -9.0334   -8.8408 C.2       1 <0>         0.5377
     24 O2          5.7551   -8.7343   -9.8995 O.co2     1 <0>        -0.6604
     25 O3          4.8858   -8.1572   -8.0557 O.co2     1 <0>        -0.6548
     26 C22         6.1574  -11.4209  -10.5010 C.3       1 <0>         0.1150
     27 C23         5.1891  -11.3448  -11.6832 C.3       1 <0>         0.0599
     28 O4          5.9308  -11.2507  -12.9010 O.3       1 <0>        -0.3132
     29 C24         5.2167  -11.1746  -14.0532 C.ar      1 <0>         0.0212
     30 C25         4.8577  -12.3389  -14.7254 C.ar      1 <0>         0.0910
     31 C26         4.1331  -12.2658  -15.8959 C.ar      1 <0>        -0.1211
     32 C27         3.7582  -11.0189  -16.4075 C.ar      1 <0>        -0.0835
     33 C28         4.1206   -9.8507  -15.7285 C.ar      1 <0>        -0.1196
     34 C29         4.8408   -9.9326  -14.5558 C.ar      1 <0>         0.1006
     35 F1          5.1866   -8.8053  -13.8964 F         1 <0>        -0.1208
     36 C30         2.9846  -10.9363  -17.6575 C.2       1 <0>         0.5262
     37 O5          2.6688  -11.9588  -18.2502 O.co2     1 <0>        -0.6799
     38 O6          2.6576   -9.8450  -18.1035 O.co2     1 <0>        -0.6772
     39 F2          5.2203  -13.5426  -14.2305 F         1 <0>        -0.1342
     40 H1         -7.4344   -3.5932   -1.2859 H         1 <0>         0.0532
     41 H2         -7.8524   -5.1452   -0.5211 H         1 <0>         0.0527
     42 H3         -7.5541   -3.7083    0.4863 H         1 <0>         0.0514
     43 H4         -5.1852   -3.6866   -0.2462 H         1 <0>         0.0601
     44 H5         -5.6032   -5.2386    0.5186 H         1 <0>         0.0595
     45 H6         -5.9565   -6.2463   -1.7193 H         1 <0>         0.0600
     46 H7         -5.5385   -4.6944   -2.4841 H         1 <0>         0.0608
     47 H8         -3.2893   -4.7878   -1.4444 H         1 <0>         0.0603
     48 H9         -3.7073   -6.3397   -0.6796 H         1 <0>         0.0595
     49 H10        -4.0607   -7.3475   -2.9175 H         1 <0>         0.0596
     50 H11        -3.6427   -5.7955   -3.6823 H         1 <0>         0.0608
     51 H12        -1.3935   -5.8889   -2.6426 H         1 <0>         0.0605
     52 H13        -1.8115   -7.4408   -1.8778 H         1 <0>         0.0590
     53 H14        -2.1648   -8.4486   -4.1157 H         1 <0>         0.0592
     54 H15        -1.7468   -6.8967   -4.8805 H         1 <0>         0.0613
     55 H16         0.5024   -6.9900   -3.8408 H         1 <0>         0.0619
     56 H17         0.0844   -8.5420   -3.0760 H         1 <0>         0.0588
     57 H18        -0.2690   -9.5497   -5.3139 H         1 <0>         0.0589
     58 H19         0.1490   -7.9978   -6.0787 H         1 <0>         0.0633
     59 H20         2.3982   -8.0912   -5.0390 H         1 <0>         0.0708
     60 H21         1.9802   -9.6431   -4.2741 H         1 <0>         0.0603
     61 H22         1.6268  -10.6509   -6.5120 H         1 <0>         0.0866
     62 H23         2.0448   -9.0989   -7.2769 H         1 <0>         0.1004
     63 H24         3.2407  -13.1567   -5.7842 H         1 <0>         0.1146
     64 H25         3.5541  -15.4910   -6.4346 H         1 <0>         0.1156
     65 H26         4.7791  -16.0579   -8.4906 H         1 <0>         0.1189
     66 H27         5.7048  -14.2928   -9.9183 H         1 <0>         0.1180
     67 H28         6.7771  -10.5244  -10.4807 H         1 <0>         0.1278
     68 H29         6.7932  -12.2997  -10.6080 H         1 <0>         0.0838
     69 H30         4.5694  -12.2413  -11.7035 H         1 <0>         0.0490
     70 H31         4.5533  -10.4660  -11.5761 H         1 <0>         0.0708
     71 H32         3.8555  -13.1699  -16.4173 H         1 <0>         0.1493
     72 H33         3.8330   -8.8863  -16.1202 H         1 <0>         0.1510
@<TRIPOS>BOND
     1    1    2 1
     2    1   40 1
     3    1   41 1
     4    1   42 1
     5    2    3 1
     6    2   43 1
     7    2   44 1
     8    3    4 1
     9    3   45 1
    10    3   46 1
    11    4    5 1
    12    4   47 1
    13    4   48 1
    14    5    6 1
    15    5   49 1
    16    5   50 1
    17    6    7 1
    18    6   51 1
    19    6   52 1
    20    7    8 1
    21    7   53 1
    22    7   54 1
    23    8    9 1
    24    8   55 1
    25    8   56 1
    26    9   10 1
    27    9   57 1
    28    9   58 1
    29   10   11 1
    30   10   59 1
    31   10   60 1
    32   11   12 1
    33   11   61 1
    34   11   62 1
    35   12   13 2
    36   12   14 1
    37   14   22 2
    38   14   15 1
    39   15   20 ar
    40   15   16 ar
    41   16   17 ar
    42   16   63 1
    43   17   18 ar
    44   17   64 1
    45   18   19 ar
    46   18   65 1
    47   19   20 ar
    48   19   66 1
    49   20   21 1
    50   21   22 1
    51   21   26 1
    52   22   23 1
    53   23   24 2
    54   23   25 1
    55   26   27 1
    56   26   67 1
    57   26   68 1
    58   27   28 1
    59   27   69 1
    60   27   70 1
    61   28   29 1
    62   29   34 ar
    63   29   30 ar
    64   30   31 ar
    65   30   39 1
    66   31   32 ar
    67   31   71 1
    68   32   33 ar
    69   32   36 1
    70   33   34 ar
    71   33   72 1
    72   34   35 1
    73   36   37 2
    74   36   38 1
@<TRIPOS>MOLECULE
CHEMBL356699
   48    50     0     0     0
SMALL
USER_CHARGES

@<TRIPOS>ATOM
      1 C1         -0.0167    1.3781    0.0096 C.ar      1 <0>        -0.1090
      2 C2          1.1709    2.0855    0.0021 C.ar      1 <0>        -0.1195
      3 C3          2.3773    1.4107   -0.0130 C.ar      1 <0>        -0.0952
      4 C4          2.3960    0.0285   -0.0201 C.ar      1 <0>        -0.1178
      5 C5          1.2084   -0.6789   -0.0117 C.ar      1 <0>        -0.0971
      6 C6          0.0021   -0.0041    0.0020 C.ar      1 <0>        -0.1207
      7 C7          3.7112   -0.7071   -0.0376 C.3       1 <0>         0.1464
      8 N1          4.1518   -0.9524    1.3379 N.pl3     1 <0>        -0.4596
      9 C8          4.9369   -0.0973    2.0833 C.ar      1 <0>         0.0918
     10 C9          5.5122    1.1418    1.8222 C.ar      1 <0>        -0.0840
     11 C10         6.2647    1.7696    2.7907 C.ar      1 <0>        -0.0332
     12 C11         6.4572    1.1743    4.0359 C.ar      1 <0>         0.1285
     13 C12         5.8948   -0.0551    4.3135 C.ar      1 <0>        -0.1544
     14 C13         5.1296   -0.7002    3.3389 C.ar      1 <0>        -0.0469
     15 C14         4.4064   -1.9734    3.2931 C.2       1 <0>        -0.1092
     16 C15         3.8412   -2.0612    2.0773 C.2       1 <0>         0.0957
     17 Br1         2.7791   -3.5053    1.4753 Br        1 <0>         0.0069
     18 C16         4.3099   -2.9896    4.4018 C.3       1 <0>        -0.0751
     19 C17         3.1106   -2.6830    5.2612 C.2       1 <0>         0.5166
     20 O1          2.4038   -1.7329    4.9993 O.2       1 <0>        -0.5253
     21 N2          2.8234   -3.4646    6.3210 N.am      1 <0>        -0.8591
     22 O2          7.2028    1.8071    4.9812 O.3       1 <0>        -0.2983
     23 C18         7.3604    1.1415    6.2358 C.3       1 <0>         0.0578
     24 C19         8.2230    1.9995    7.1635 C.3       1 <0>        -0.0910
     25 C20         8.3918    1.2868    8.5068 C.3       1 <0>        -0.1798
     26 C21         9.2415    2.1320    9.4206 C.2       1 <0>         0.4911
     27 O3          9.6721    3.2049    9.0333 O.co2     1 <0>        -0.6948
     28 O4          9.4983    1.7428   10.5471 O.co2     1 <0>        -0.7055
     29 Cl1         6.9797    3.3158    2.4567 Cl        1 <0>        -0.0475
     30 H1         -0.9591    1.9053    0.0259 H         1 <0>         0.1231
     31 H2          1.1563    3.1654    0.0076 H         1 <0>         0.1250
     32 H3          3.3051    1.9634   -0.0196 H         1 <0>         0.1221
     33 H4          1.2231   -1.7588   -0.0176 H         1 <0>         0.1226
     34 H5         -0.9258   -0.5567    0.0082 H         1 <0>         0.1232
     35 H6          3.5884   -1.6586   -0.5549 H         1 <0>         0.1001
     36 H7          4.4573   -0.1052   -0.5563 H         1 <0>         0.1024
     37 H8          5.3694    1.6117    0.8603 H         1 <0>         0.1357
     38 H9          6.0453   -0.5157    5.2786 H         1 <0>         0.1386
     39 H10         4.2044   -3.9862    3.9730 H         1 <0>         0.1049
     40 H11         5.2131   -2.9498    5.0107 H         1 <0>         0.1094
     41 H12         3.3887   -4.2246    6.5305 H         1 <0>         0.4009
     42 H13         2.0515   -3.2673    6.8742 H         1 <0>         0.4015
     43 H14         6.3819    0.9861    6.6902 H         1 <0>         0.0583
     44 H15         7.8447    0.1779    6.0776 H         1 <0>         0.0587
     45 H16         9.2015    2.1549    6.7092 H         1 <0>         0.0723
     46 H17         7.7388    2.9631    7.3218 H         1 <0>         0.0721
     47 H18         7.4133    1.1314    8.9612 H         1 <0>         0.0586
     48 H19         8.8761    0.3232    8.3486 H         1 <0>         0.0587
@<TRIPOS>BOND
     1    1    6 ar
     2    1    2 ar
     3    1   30 1
     4    2    3 ar
     5    2   31 1
     6    3    4 ar
     7    3   32 1
     8    4    5 ar
     9    4    7 1
    10    5    6 ar
    11    5   33 1
    12    6   34 1
    13    7    8 1
    14    7   35 1
    15    7   36 1
    16    8   16 1
    17    8    9 1
    18    9   14 ar
    19    9   10 ar
    20   10   11 ar
    21   10   37 1
    22   11   12 ar
    23   11   29 1
    24   12   13 ar
    25   12   22 1
    26   13   14 ar
    27   13   38 1
    28   14   15 1
    29   15   16 2
    30   15   18 1
    31   16   17 1
    32   18   19 1
    33   18   39 1
    34   18   40 1
    35   19   20 2
    36   19   21 am
    37   21   41 1
    38   21   42 1
    39   22   23 1
    40   23   24 1
    41   23   43 1
    42   23   44 1
    43   24   25 1
    44   24   45 1
    45   24   46 1
    46   25   26 1
    47   25   47 1
    48   25   48 1
    49   26   27 2
    50   26   28 1
@<TRIPOS>MOLECULE
CHEMBL148861
   54    57     0     0     0
SMALL
USER_CHARGES

@<TRIPOS>ATOM
      1 C1          0.0163    1.5160   -0.0025 C.3       1 <0>        -0.1010
      2 C2          0.0179    0.0090   -0.0013 C.2       1 <0>         0.1147
      3 C3         -0.0895   -0.7893   -1.1247 C.2       1 <0>        -0.2107
      4 C4         -0.0408   -2.1833   -0.6432 C.ar      1 <0>        -0.0959
      5 C5          0.0939   -2.1034    0.7507 C.ar      1 <0>         0.1347
      6 N1          0.1300   -0.7660    1.0929 N.pl3     1 <0>        -0.4569
      7 C6          0.2679   -0.2601    2.4609 C.3       1 <0>         0.1486
      8 C7         -1.0983   -0.0893    3.0735 C.ar      1 <0>        -0.1113
      9 C8         -1.7694    1.1125    2.9369 C.ar      1 <0>        -0.0991
     10 C9         -3.0209    1.2744    3.4959 C.ar      1 <0>        -0.1105
     11 C10        -3.6082    0.2244    4.1988 C.ar      1 <0>        -0.0384
     12 C11        -2.9277   -0.9840    4.3333 C.ar      1 <0>        -0.1093
     13 C12        -1.6791   -1.1368    3.7654 C.ar      1 <0>        -0.0906
     14 C13        -4.9533    0.3927    4.8024 C.ar      1 <0>        -0.0455
     15 C14        -5.6361    1.5994    4.6634 C.ar      1 <0>        -0.1100
     16 C15        -6.8871    1.7503    5.2264 C.ar      1 <0>        -0.1181
     17 C16        -7.4630    0.7066    5.9280 C.ar      1 <0>        -0.1196
     18 C17        -6.7896   -0.4932    6.0695 C.ar      1 <0>        -0.1178
     19 C18        -5.5407   -0.6572    5.5053 C.ar      1 <0>        -0.1096
     20 C19         0.1682   -3.2756    1.4969 C.ar      1 <0>        -0.1816
     21 C20         0.1100   -4.5005    0.8666 C.ar      1 <0>        -0.0513
     22 C21        -0.0231   -4.5818   -0.5102 C.ar      1 <0>        -0.2485
     23 C22        -0.0993   -3.4282   -1.2715 C.ar      1 <0>         0.1878
     24 O1         -0.2301   -3.5073   -2.6216 O.3       1 <0>        -0.2774
     25 C23        -0.2829   -4.8162   -3.1927 C.3       1 <0>        -0.0071
     26 C24        -0.4282   -4.7060   -4.6886 C.2       1 <0>         0.5020
     27 O2         -0.4816   -3.6084   -5.2167 O.co2     1 <0>        -0.6686
     28 O3         -0.4923   -5.7145   -5.3707 O.co2     1 <0>        -0.6884
     29 C25        -0.2249   -0.3427   -2.5101 C.2       1 <0>         0.4441
     30 O4         -1.3244   -0.0885   -2.9621 O.2       1 <0>        -0.4095
     31 C26         0.9859   -0.1988   -3.3689 C.2       1 <0>         0.4976
     32 O5          2.0716   -0.5442   -2.9501 O.2       1 <0>        -0.5075
     33 N2          0.8746    0.3146   -4.6101 N.am      1 <0>        -0.8257
     34 H1          1.0435    1.8804   -0.0149 H         1 <0>         0.0836
     35 H2         -0.5083    1.8780   -0.8867 H         1 <0>         0.0833
     36 H3         -0.4875    1.8795    0.8931 H         1 <0>         0.0755
     37 H4          0.8459   -0.9689    3.0539 H         1 <0>         0.1008
     38 H5          0.7807    0.7015    2.4427 H         1 <0>         0.1000
     39 H6         -1.3130    1.9257    2.3921 H         1 <0>         0.1270
     40 H7         -3.5438    2.2132    3.3889 H         1 <0>         0.1272
     41 H8         -3.3782   -1.8010    4.8774 H         1 <0>         0.1274
     42 H9         -1.1528   -2.0746    3.8649 H         1 <0>         0.1271
     43 H10        -5.1870    2.4152    4.1163 H         1 <0>         0.1255
     44 H11        -7.4172    2.6852    5.1193 H         1 <0>         0.1241
     45 H12        -8.4420    0.8291    6.3673 H         1 <0>         0.1223
     46 H13        -7.2437   -1.3048    6.6186 H         1 <0>         0.1243
     47 H14        -5.0176   -1.5960    5.6126 H         1 <0>         0.1258
     48 H15         0.2720   -3.2258    2.5708 H         1 <0>         0.1155
     49 H16         0.1690   -5.4061    1.4522 H         1 <0>         0.1250
     50 H17        -0.0674   -5.5480   -0.9908 H         1 <0>         0.1306
     51 H18         0.6354   -5.3534   -2.9554 H         1 <0>         0.0608
     52 H19        -1.1363   -5.3570   -2.7836 H         1 <0>         0.0603
     53 H20         0.0070    0.5907   -4.9448 H         1 <0>         0.4092
     54 H21         1.6621    0.4082   -5.1687 H         1 <0>         0.4056
@<TRIPOS>BOND
     1    1    2 1
     2    1   34 1
     3    1   35 1
     4    1   36 1
     5    2    6 1
     6    2    3 2
     7    3    4 1
     8    3   29 1
     9    4   23 ar
    10    4    5 ar
    11    5    6 1
    12    5   20 ar
    13    6    7 1
    14    7    8 1
    15    7   37 1
    16    7   38 1
    17    8   13 ar
    18    8    9 ar
    19    9   10 ar
    20    9   39 1
    21   10   11 ar
    22   10   40 1
    23   11   12 ar
    24   11   14 1
    25   12   13 ar
    26   12   41 1
    27   13   42 1
    28   14   19 ar
    29   14   15 ar
    30   15   16 ar
    31   15   43 1
    32   16   17 ar
    33   16   44 1
    34   17   18 ar
    35   17   45 1
    36   18   19 ar
    37   18   46 1
    38   19   47 1
    39   20   21 ar
    40   20   48 1
    41   21   22 ar
    42   21   49 1
    43   22   23 ar
    44   22   50 1
    45   23   24 1
    46   24   25 1
    47   25   26 1
    48   25   51 1
    49   25   52 1
    50   26   27 2
    51   26   28 1
    52   29   30 2
    53   29   31 1
    54   31   32 2
    55   31   33 am
    56   33   53 1
    57   33   54 1
@<TRIPOS>MOLECULE
CHEMBL316182
   72    74     0     0     0
SMALL
USER_CHARGES

@<TRIPOS>ATOM
      1 C1          4.0648   -4.0497   -6.1591 C.3       1 <0>        -0.1533
      2 C2          3.2621   -4.4492   -4.9194 C.3       1 <0>        -0.1259
      3 C3          4.1722   -5.1939   -3.9406 C.3       1 <0>        -0.1214
      4 C4          3.3695   -5.5934   -2.7009 C.3       1 <0>        -0.1207
      5 C5          4.2797   -6.3381   -1.7222 C.3       1 <0>        -0.1207
      6 C6          3.4770   -6.7375   -0.4824 C.3       1 <0>        -0.1200
      7 C7          4.3871   -7.4823    0.4963 C.3       1 <0>        -0.1204
      8 C8          3.5844   -7.8817    1.7361 C.3       1 <0>        -0.1190
      9 C9          4.4946   -8.6265    2.7148 C.3       1 <0>        -0.1195
     10 C10         3.6919   -9.0259    3.9546 C.3       1 <0>        -0.1074
     11 C11         4.6020   -9.7707    4.9333 C.3       1 <0>        -0.1579
     12 C12         3.8114  -10.1641    6.1544 C.2       1 <0>         0.4644
     13 O1          2.6612   -9.7988    6.2759 O.2       1 <0>        -0.4569
     14 C13         4.4335  -10.9898    7.1974 C.2       1 <0>        -0.2456
     15 C14         4.5343  -12.4555    7.2192 C.ar      1 <0>        -0.0758
     16 C15         4.1174  -13.4652    6.3498 C.ar      1 <0>        -0.0786
     17 C16         4.3658  -14.7721    6.6587 C.ar      1 <0>        -0.1491
     18 C17         5.0307  -15.1050    7.8323 C.ar      1 <0>        -0.1151
     19 C18         5.4503  -14.1265    8.7041 C.ar      1 <0>        -0.1189
     20 C19         5.2084  -12.7852    8.4099 C.ar      1 <0>         0.0851
     21 N1          5.5002  -11.6167    9.0698 N.pl3     1 <0>        -0.4422
     22 C20         5.0504  -10.5417    8.3586 C.2       1 <0>         0.0964
     23 C21         5.1933   -9.1306    8.7606 C.2       1 <0>         0.5383
     24 O2          5.8383   -8.8413    9.7589 O.co2     1 <0>        -0.6633
     25 O3          4.6669   -8.2490    8.0959 O.co2     1 <0>        -0.6537
     26 C22         6.2000  -11.5350   10.3542 C.3       1 <0>         0.1137
     27 C23         7.7065  -11.4305   10.1084 C.3       1 <0>         0.0565
     28 O4          8.3891  -11.3508   11.3613 O.3       1 <0>        -0.2995
     29 C24         9.7419  -11.2528   11.3206 C.ar      1 <0>         0.1389
     30 C25        10.3985  -11.2281   10.0954 C.ar      1 <0>        -0.2123
     31 C26        11.7704  -11.1292   10.0490 C.ar      1 <0>        -0.0398
     32 C27        12.5052  -11.0530   11.2372 C.ar      1 <0>        -0.1639
     33 C28        11.8411  -11.0777   12.4682 C.ar      1 <0>        -0.0398
     34 C29        10.4673  -11.1716   12.5051 C.ar      1 <0>        -0.0803
     35 Cl1         9.6407  -11.1959   14.0314 Cl        1 <0>        -0.0799
     36 C30        13.9731  -10.9476   11.1921 C.2       1 <0>         0.5279
     37 O5         14.5521  -10.9265   10.1146 O.co2     1 <0>        -0.6891
     38 O6         14.6138  -10.8810   12.2322 O.co2     1 <0>        -0.6900
     39 H1          4.4602   -4.9445   -6.6398 H         1 <0>         0.0527
     40 H2          3.4164   -3.5192   -6.8564 H         1 <0>         0.0514
     41 H3          4.8896   -3.4009   -5.8645 H         1 <0>         0.0533
     42 H4          2.8666   -3.5544   -4.4387 H         1 <0>         0.0600
     43 H5          2.4373   -5.0980   -5.2140 H         1 <0>         0.0595
     44 H6          4.5677   -6.0887   -4.4213 H         1 <0>         0.0601
     45 H7          4.9970   -4.5451   -3.6460 H         1 <0>         0.0608
     46 H8          2.9741   -4.6985   -2.2202 H         1 <0>         0.0603
     47 H9          2.5447   -6.2422   -2.9956 H         1 <0>         0.0595
     48 H10         4.6751   -7.2329   -2.2028 H         1 <0>         0.0597
     49 H11         5.1045   -5.6893   -1.4275 H         1 <0>         0.0608
     50 H12         3.0815   -5.8427   -0.0017 H         1 <0>         0.0605
     51 H13         2.6522   -7.3864   -0.7771 H         1 <0>         0.0590
     52 H14         4.7826   -8.3771    0.0157 H         1 <0>         0.0592
     53 H15         5.2119   -6.8335    0.7910 H         1 <0>         0.0613
     54 H16         3.1890   -6.9869    2.2168 H         1 <0>         0.0618
     55 H17         2.7596   -8.5305    1.4414 H         1 <0>         0.0588
     56 H18         4.8900   -9.5213    2.2342 H         1 <0>         0.0590
     57 H19         5.3194   -7.9777    3.0095 H         1 <0>         0.0633
     58 H20         3.2964   -8.1311    4.4352 H         1 <0>         0.0708
     59 H21         2.8670   -9.6747    3.6599 H         1 <0>         0.0603
     60 H22         4.9974  -10.6655    4.4527 H         1 <0>         0.0868
     61 H23         5.4268   -9.1218    5.2280 H         1 <0>         0.1005
     62 H24         3.5997  -13.2135    5.4360 H         1 <0>         0.1148
     63 H25         4.0426  -15.5527    5.9859 H         1 <0>         0.1158
     64 H26         5.2199  -16.1429    8.0630 H         1 <0>         0.1189
     65 H27         5.9663  -14.3967    9.6136 H         1 <0>         0.1176
     66 H28         5.8588  -10.6544   10.8985 H         1 <0>         0.1282
     67 H29         5.9887  -12.4291   10.9406 H         1 <0>         0.0845
     68 H30         8.0477  -12.3111    9.5641 H         1 <0>         0.0567
     69 H31         7.9178  -10.5364    9.5220 H         1 <0>         0.0782
     70 H32         9.8309  -11.2869    9.1784 H         1 <0>         0.1293
     71 H33        12.2793  -11.1108    9.0965 H         1 <0>         0.1340
     72 H34        12.4042  -11.0191   13.3879 H         1 <0>         0.1417
@<TRIPOS>BOND
     1    1    2 1
     2    1   39 1
     3    1   40 1
     4    1   41 1
     5    2    3 1
     6    2   42 1
     7    2   43 1
     8    3    4 1
     9    3   44 1
    10    3   45 1
    11    4    5 1
    12    4   46 1
    13    4   47 1
    14    5    6 1
    15    5   48 1
    16    5   49 1
    17    6    7 1
    18    6   50 1
    19    6   51 1
    20    7    8 1
    21    7   52 1
    22    7   53 1
    23    8    9 1
    24    8   54 1
    25    8   55 1
    26    9   10 1
    27    9   56 1
    28    9   57 1
    29   10   11 1
    30   10   58 1
    31   10   59 1
    32   11   12 1
    33   11   60 1
    34   11   61 1
    35   12   13 2
    36   12   14 1
    37   14   22 2
    38   14   15 1
    39   15   20 ar
    40   15   16 ar
    41   16   17 ar
    42   16   62 1
    43   17   18 ar
    44   17   63 1
    45   18   19 ar
    46   18   64 1
    47   19   20 ar
    48   19   65 1
    49   20   21 1
    50   21   22 1
    51   21   26 1
    52   22   23 1
    53   23   24 2
    54   23   25 1
    55   26   27 1
    56   26   66 1
    57   26   67 1
    58   27   28 1
    59   27   68 1
    60   27   69 1
    61   28   29 1
    62   29   34 ar
    63   29   30 ar
    64   30   31 ar
    65   30   70 1
    66   31   32 ar
    67   31   71 1
    68   32   33 ar
    69   32   36 1
    70   33   34 ar
    71   33   72 1
    72   34   35 1
    73   36   37 2
    74   36   38 1
@<TRIPOS>MOLECULE
CHEMBL122724
   38    39     0     0     0
SMALL
USER_CHARGES

@<TRIPOS>ATOM
      1 C1         -0.0187    1.5258    0.0104 C.3       1 <0>        -0.1546
      2 C2          0.0021   -0.0041    0.0020 C.3       1 <0>        -0.1242
      3 C3          0.7182   -0.4975   -1.2568 C.3       1 <0>        -0.1138
      4 C4          0.7390   -2.0273   -1.2652 C.3       1 <0>        -0.0389
      5 C5          1.4443   -2.5133   -2.5051 C.2       1 <0>         0.2669
      6 N1          1.1352   -2.1829   -3.7315 N.2       1 <0>        -0.4745
      7 C6          1.9635   -2.7930   -4.5840 C.2       1 <0>         0.1195
      8 C7          2.8377   -3.5455   -3.8507 C.2       1 <0>         0.0253
      9 N2          2.4986   -3.3537   -2.5259 N.pl3     1 <0>        -0.5472
     10 C8          3.9236   -4.3859   -4.3680 C.2       1 <0>         0.1401
     11 N3          4.2325   -4.5444   -5.6154 N.2       1 <0>        -0.2504
     12 O1          5.3335   -5.4119   -5.8012 O.3       1 <0>        -0.1705
     13 C9          5.5048   -6.1663   -4.5843 C.3       1 <0>         0.0557
     14 C10         4.8823   -5.2138   -3.5334 C.3       1 <0>        -0.1446
     15 C11         6.9877   -6.4038   -4.2918 C.3       1 <0>        -0.1097
     16 C12         7.5699   -7.3066   -5.3486 C.2       1 <0>         0.4581
     17 O2          6.8706   -7.7179   -6.2440 O.2       1 <0>        -0.4886
     18 O3          8.8654   -7.6538   -5.2953 O.3       1 <0>        -0.3555
     19 C13         9.3501   -8.5123   -6.3298 C.3       1 <0>         0.0334
     20 Cl1         1.9346   -2.6547   -6.3142 Cl        1 <0>         0.0232
     21 H1          1.0039    1.9031    0.0027 H         1 <0>         0.0537
     22 H2         -0.5459    1.8868   -0.8726 H         1 <0>         0.0565
     23 H3         -0.5289    1.8773    0.9072 H         1 <0>         0.0555
     24 H4          0.5293   -0.3651    0.8851 H         1 <0>         0.0618
     25 H5         -1.0205   -0.3814    0.0098 H         1 <0>         0.0656
     26 H6          0.1910   -0.1364   -2.1398 H         1 <0>         0.0804
     27 H7          1.7408   -0.1202   -1.2645 H         1 <0>         0.0644
     28 H8          1.2661   -2.3884   -0.3821 H         1 <0>         0.0861
     29 H9         -0.2836   -2.4046   -1.2575 H         1 <0>         0.1013
     30 H10         4.9621   -7.1104   -4.6311 H         1 <0>         0.1029
     31 H11         5.6459   -4.5816   -3.0802 H         1 <0>         0.1114
     32 H12         4.3440   -5.7783   -2.7720 H         1 <0>         0.1067
     33 H13         7.5162   -5.4505   -4.2969 H         1 <0>         0.1192
     34 H14         7.0945   -6.8732   -3.3139 H         1 <0>         0.1273
     35 H15         9.2164   -8.0273   -7.2968 H         1 <0>         0.0628
     36 H16        10.4089   -8.7144   -6.1679 H         1 <0>         0.1039
     37 H17         8.7947   -9.4500   -6.3138 H         1 <0>         0.0616
     38 H18         2.9352   -3.7502   -1.7558 H         1 <0>         0.4290
@<TRIPOS>BOND
     1    1    2 1
     2    1   21 1
     3    1   22 1
     4    1   23 1
     5    2    3 1
     6    2   24 1
     7    2   25 1
     8    3    4 1
     9    3   26 1
    10    3   27 1
    11    4    5 1
    12    4   28 1
    13    4   29 1
    14    5    9 1
    15    5    6 2
    16    6    7 1
    17    7    8 2
    18    7   20 1
    19    8    9 1
    20    8   10 1
    21    9   38 1
    22   10   14 1
    23   10   11 2
    24   11   12 1
    25   12   13 1
    26   13   14 1
    27   13   15 1
    28   13   30 1
    29   14   31 1
    30   14   32 1
    31   15   16 1
    32   15   33 1
    33   15   34 1
    34   16   17 2
    35   16   18 1
    36   18   19 1
    37   19   35 1
    38   19   36 1
    39   19   37 1
@<TRIPOS>MOLECULE
CHEMBL122724__1
   38    39     0     0     0
SMALL
USER_CHARGES

@<TRIPOS>ATOM
      1 C1         -0.0187    1.5258    0.0104 C.3       1 <0>        -0.1547
      2 C2          0.0021   -0.0041    0.0020 C.3       1 <0>        -0.1241
      3 C3          0.7182   -0.4975   -1.2568 C.3       1 <0>        -0.1139
      4 C4          0.7390   -2.0273   -1.2652 C.3       1 <0>        -0.0389
      5 C5          1.4443   -2.5133   -2.5051 C.2       1 <0>         0.2670
      6 N1          1.1352   -2.1829   -3.7315 N.2       1 <0>        -0.4744
      7 C6          1.9635   -2.7930   -4.5840 C.2       1 <0>         0.1196
      8 C7          2.8377   -3.5455   -3.8507 C.2       1 <0>         0.0253
      9 N2          2.4986   -3.3537   -2.5259 N.pl3     1 <0>        -0.5472
     10 C8          3.9236   -4.3859   -4.3680 C.2       1 <0>         0.1405
     11 N3          4.2325   -4.5444   -5.6154 N.2       1 <0>        -0.2505
     12 O1          5.3244   -5.4232   -5.8020 O.3       1 <0>        -0.1701
     13 C9          6.0091   -5.5427   -4.5387 C.3       1 <0>         0.0556
     14 C10         4.8823   -5.2138   -3.5334 C.3       1 <0>        -0.1448
     15 C11         6.5336   -6.9652   -4.3329 C.3       1 <0>        -0.1093
     16 C12         7.6123   -7.2542   -5.3448 C.2       1 <0>         0.4582
     17 O2          7.9291   -6.4092   -6.1482 O.2       1 <0>        -0.4885
     18 O3          8.2211   -8.4505   -5.3536 O.3       1 <0>        -0.3555
     19 C13         9.2343   -8.6555   -6.3403 C.3       1 <0>         0.0334
     20 Cl1         1.9346   -2.6547   -6.3142 Cl        1 <0>         0.0233
     21 H1          1.0039    1.9031    0.0027 H         1 <0>         0.0537
     22 H2         -0.5459    1.8868   -0.8726 H         1 <0>         0.0566
     23 H3         -0.5289    1.8773    0.9072 H         1 <0>         0.0555
     24 H4          0.5293   -0.3651    0.8851 H         1 <0>         0.0618
     25 H5         -1.0205   -0.3814    0.0098 H         1 <0>         0.0656
     26 H6          0.1910   -0.1364   -2.1398 H         1 <0>         0.0805
     27 H7          1.7408   -0.1202   -1.2645 H         1 <0>         0.0643
     28 H8          1.2661   -2.3884   -0.3821 H         1 <0>         0.0861
     29 H9         -0.2836   -2.4046   -1.2575 H         1 <0>         0.1014
     30 H10         6.8178   -4.8158   -4.4632 H         1 <0>         0.1018
     31 H11         5.2672   -4.6323   -2.6956 H         1 <0>         0.1070
     32 H12         4.4009   -6.1269   -3.1831 H         1 <0>         0.1111
     33 H13         6.9440   -7.0592   -3.3275 H         1 <0>         0.1273
     34 H14         5.7167   -7.6756   -4.4597 H         1 <0>         0.1193
     35 H15        10.0296   -7.9231   -6.2020 H         1 <0>         0.0616
     36 H16         9.6438   -9.6603   -6.2372 H         1 <0>         0.1039
     37 H17         8.8023   -8.5394   -7.3343 H         1 <0>         0.0628
     38 H18         2.9352   -3.7502   -1.7558 H         1 <0>         0.4290
@<TRIPOS>BOND
     1    1    2 1
     2    1   21 1
     3    1   22 1
     4    1   23 1
     5    2    3 1
     6    2   24 1
     7    2   25 1
     8    3    4 1
     9    3   26 1
    10    3   27 1
    11    4    5 1
    12    4   28 1
    13    4   29 1
    14    5    9 1
    15    5    6 2
    16    6    7 1
    17    7    8 2
    18    7   20 1
    19    8    9 1
    20    8   10 1
    21    9   38 1
    22   10   14 1
    23   10   11 2
    24   11   12 1
    25   12   13 1
    26   13   14 1
    27   13   15 1
    28   13   30 1
    29   14   31 1
    30   14   32 1
    31   15   16 1
    32   15   33 1
    33   15   34 1
    34   16   17 2
    35   16   18 1
    36   18   19 1
    37   19   35 1
    38   19   36 1
    39   19   37 1
@<TRIPOS>MOLECULE
CHEMBL123168
   30    31     0     0     0
SMALL
USER_CHARGES

@<TRIPOS>ATOM
      1 C1         -0.0187    1.5258    0.0104 C.3       1 <0>        -0.1549
      2 C2          0.0021   -0.0041    0.0020 C.3       1 <0>        -0.1240
      3 C3          0.7182   -0.4975   -1.2568 C.3       1 <0>        -0.1143
      4 C4          0.7390   -2.0273   -1.2652 C.3       1 <0>        -0.0399
      5 C5          1.4443   -2.5133   -2.5051 C.2       1 <0>         0.2723
      6 N1          1.1352   -2.1829   -3.7315 N.2       1 <0>        -0.4744
      7 C6          1.9635   -2.7930   -4.5840 C.2       1 <0>         0.1257
      8 C7          2.8377   -3.5455   -3.8507 C.2       1 <0>         0.0186
      9 N2          2.4986   -3.3537   -2.5259 N.pl3     1 <0>        -0.5466
     10 C8          3.9236   -4.3859   -4.3680 C.2       1 <0>         0.1535
     11 N3          4.2325   -4.5444   -5.6154 N.2       1 <0>        -0.2515
     12 O1          5.3244   -5.4232   -5.8020 O.3       1 <0>        -0.1640
     13 C9          6.0091   -5.5427   -4.5387 C.3       1 <0>         0.1481
     14 C10         4.8823   -5.2138   -3.5334 C.3       1 <0>        -0.1390
     15 C11         7.1012   -4.5611   -4.4367 C.1       1 <0>         0.1775
     16 N4          7.9441   -3.8035   -4.3580 N.1       1 <0>        -0.3827
     17 Cl1         1.9346   -2.6547   -6.3142 Cl        1 <0>         0.0253
     18 H1          1.0039    1.9031    0.0027 H         1 <0>         0.0537
     19 H2         -0.5459    1.8868   -0.8726 H         1 <0>         0.0566
     20 H3         -0.5289    1.8773    0.9072 H         1 <0>         0.0557
     21 H4          0.5293   -0.3651    0.8851 H         1 <0>         0.0620
     22 H5         -1.0205   -0.3814    0.0098 H         1 <0>         0.0659
     23 H6          0.1910   -0.1364   -2.1398 H         1 <0>         0.0807
     24 H7          1.7408   -0.1202   -1.2645 H         1 <0>         0.0643
     25 H8          1.2661   -2.3884   -0.3821 H         1 <0>         0.0869
     26 H9         -0.2836   -2.4046   -1.2575 H         1 <0>         0.1027
     27 H10         6.3828   -6.5561   -4.3921 H         1 <0>         0.1681
     28 H11         5.2672   -4.6323   -2.6956 H         1 <0>         0.1117
     29 H12         4.4009   -6.1269   -3.1831 H         1 <0>         0.1322
     30 H13         2.9352   -3.7502   -1.7558 H         1 <0>         0.4299
@<TRIPOS>BOND
     1    1    2 1
     2    1   18 1
     3    1   19 1
     4    1   20 1
     5    2    3 1
     6    2   21 1
     7    2   22 1
     8    3    4 1
     9    3   23 1
    10    3   24 1
    11    4    5 1
    12    4   25 1
    13    4   26 1
    14    5    9 1
    15    5    6 2
    16    6    7 1
    17    7    8 2
    18    7   17 1
    19    8    9 1
    20    8   10 1
    21    9   30 1
    22   10   14 1
    23   10   11 2
    24   11   12 1
    25   12   13 1
    26   13   14 1
    27   13   15 1
    28   13   27 1
    29   14   28 1
    30   14   29 1
    31   15   16 3
@<TRIPOS>MOLECULE
CHEMBL123168__1
   30    31     0     0     0
SMALL
USER_CHARGES

@<TRIPOS>ATOM
      1 C1         -0.0187    1.5258    0.0104 C.3       1 <0>        -0.1547
      2 C2          0.0021   -0.0041    0.0020 C.3       1 <0>        -0.1244
      3 C3          0.7182   -0.4975   -1.2568 C.3       1 <0>        -0.1137
      4 C4          0.7390   -2.0273   -1.2652 C.3       1 <0>        -0.0404
      5 C5          1.4443   -2.5133   -2.5051 C.2       1 <0>         0.2729
      6 N1          1.1352   -2.1829   -3.7315 N.2       1 <0>        -0.4744
      7 C6          1.9635   -2.7930   -4.5840 C.2       1 <0>         0.1262
      8 C7          2.8377   -3.5455   -3.8507 C.2       1 <0>         0.0182
      9 N2          2.4986   -3.3537   -2.5259 N.pl3     1 <0>        -0.5465
     10 C8          3.9236   -4.3859   -4.3680 C.2       1 <0>         0.1569
     11 N3          4.2325   -4.5444   -5.6154 N.2       1 <0>        -0.2440
     12 O1          5.3244   -5.4232   -5.8020 O.3       1 <0>        -0.1713
     13 C9          6.0091   -5.5427   -4.5387 C.3       1 <0>         0.1494
     14 C10         4.8823   -5.2138   -3.5334 C.3       1 <0>        -0.1409
     15 C11         6.5137   -6.9113   -4.3407 C.1       1 <0>         0.2034
     16 N4          6.9031   -7.9675   -4.1879 N.1       1 <0>        -0.3788
     17 Cl1         1.9346   -2.6547   -6.3142 Cl        1 <0>         0.0256
     18 H1          1.0039    1.9031    0.0027 H         1 <0>         0.0538
     19 H2         -0.5459    1.8868   -0.8726 H         1 <0>         0.0566
     20 H3         -0.5289    1.8773    0.9072 H         1 <0>         0.0556
     21 H4          0.5293   -0.3651    0.8851 H         1 <0>         0.0620
     22 H5         -1.0205   -0.3814    0.0098 H         1 <0>         0.0657
     23 H6          0.1910   -0.1364   -2.1398 H         1 <0>         0.0807
     24 H7          1.7408   -0.1202   -1.2645 H         1 <0>         0.0648
     25 H8          1.2661   -2.3884   -0.3821 H         1 <0>         0.0871
     26 H9         -0.2836   -2.4046   -1.2575 H         1 <0>         0.1024
     27 H10         6.8178   -4.8158   -4.4632 H         1 <0>         0.1402
     28 H11         5.2672   -4.6323   -2.6956 H         1 <0>         0.1209
     29 H12         4.4009   -6.1269   -3.1831 H         1 <0>         0.1166
     30 H13         2.9352   -3.7502   -1.7558 H         1 <0>         0.4302
@<TRIPOS>BOND
     1    1    2 1
     2    1   18 1
     3    1   19 1
     4    1   20 1
     5    2    3 1
     6    2   21 1
     7    2   22 1
     8    3    4 1
     9    3   23 1
    10    3   24 1
    11    4    5 1
    12    4   25 1
    13    4   26 1
    14    5    9 1
    15    5    6 2
    16    6    7 1
    17    7    8 2
    18    7   17 1
    19    8    9 1
    20    8   10 1
    21    9   30 1
    22   10   14 1
    23   10   11 2
    24   11   12 1
    25   12   13 1
    26   13   14 1
    27   13   15 1
    28   13   27 1
    29   14   28 1
    30   14   29 1
    31   15   16 3
@<TRIPOS>MOLECULE
CHEMBL123104
   35    36     0     0     0
SMALL
USER_CHARGES

@<TRIPOS>ATOM
      1 C1         -0.0187    1.5258    0.0104 C.3       1 <0>        -0.1548
      2 C2          0.0021   -0.0041    0.0020 C.3       1 <0>        -0.1241
      3 C3         -1.4333   -0.5336    0.0129 C.3       1 <0>        -0.1141
      4 C4         -1.4126   -2.0635    0.0045 C.3       1 <0>        -0.0397
      5 C5         -2.8264   -2.5851    0.0152 C.2       1 <0>         0.2716
      6 N1         -3.7420   -2.2745    0.8949 N.2       1 <0>        -0.4740
      7 C6         -4.8787   -2.9143    0.6059 C.2       1 <0>         0.1250
      8 C7         -4.6618   -3.6656   -0.5152 C.2       1 <0>         0.0202
      9 N2         -3.3502   -3.4421   -0.8845 N.pl3     1 <0>        -0.5466
     10 C8         -5.6313   -4.5330   -1.1941 C.2       1 <0>         0.1513
     11 N3         -6.8617   -4.7212   -0.8374 N.2       1 <0>        -0.2435
     12 O1         -7.5509   -5.6092   -1.6950 O.3       1 <0>        -0.1575
     13 C9         -6.5641   -6.3417   -2.4491 C.3       1 <0>         0.0556
     14 C10        -5.3669   -5.3588   -2.4387 C.3       1 <0>        -0.1353
     15 C11        -7.0386   -6.5925   -3.8573 C.2       1 <0>         0.4630
     16 O2         -8.0934   -6.1358   -4.2297 O.2       1 <0>        -0.4715
     17 O3         -6.2895   -7.3233   -4.6978 O.3       1 <0>        -0.3482
     18 C12        -6.8006   -7.5210   -6.0175 C.3       1 <0>         0.0325
     19 Cl1        -6.3658   -2.8102    1.4955 Cl        1 <0>         0.0254
     20 H1          1.0039    1.9031    0.0027 H         1 <0>         0.0556
     21 H2         -0.5459    1.8868   -0.8726 H         1 <0>         0.0537
     22 H3         -0.5289    1.8773    0.9072 H         1 <0>         0.0566
     23 H4          0.5123   -0.3556   -0.8948 H         1 <0>         0.0620
     24 H5          0.5293   -0.3651    0.8851 H         1 <0>         0.0658
     25 H6         -1.9435   -0.1821    0.9097 H         1 <0>         0.0807
     26 H7         -1.9605   -0.1726   -0.8702 H         1 <0>         0.0646
     27 H8         -0.9024   -2.4150   -0.8923 H         1 <0>         0.0869
     28 H9         -0.8854   -2.4246    0.8875 H         1 <0>         0.1025
     29 H10        -6.3096   -7.2780   -1.9523 H         1 <0>         0.1342
     30 H11        -5.3720   -4.7297   -3.3288 H         1 <0>         0.1131
     31 H12        -4.4245   -5.8996   -2.3512 H         1 <0>         0.1205
     32 H13        -6.0996   -8.1268   -6.5917 H         1 <0>         0.1089
     33 H14        -7.7618   -8.0321   -5.9621 H         1 <0>         0.0658
     34 H15        -6.9303   -6.5550   -6.5054 H         1 <0>         0.0641
     35 H16        -2.8916   -3.8298   -1.6463 H         1 <0>         0.4299
@<TRIPOS>BOND
     1    1    2 1
     2    1   20 1
     3    1   21 1
     4    1   22 1
     5    2    3 1
     6    2   23 1
     7    2   24 1
     8    3    4 1
     9    3   25 1
    10    3   26 1
    11    4    5 1
    12    4   27 1
    13    4   28 1
    14    5    9 1
    15    5    6 2
    16    6    7 1
    17    7    8 2
    18    7   19 1
    19    8    9 1
    20    8   10 1
    21    9   35 1
    22   10   14 1
    23   10   11 2
    24   11   12 1
    25   12   13 1
    26   13   14 1
    27   13   15 1
    28   13   29 1
    29   14   30 1
    30   14   31 1
    31   15   16 2
    32   15   17 1
    33   17   18 1
    34   18   32 1
    35   18   33 1
    36   18   34 1
@<TRIPOS>MOLECULE
CHEMBL123104__1
   35    36     0     0     0
SMALL
USER_CHARGES

@<TRIPOS>ATOM
      1 C1         -0.0187    1.5258    0.0104 C.3       1 <0>        -0.1547
      2 C2          0.0021   -0.0041    0.0020 C.3       1 <0>        -0.1243
      3 C3         -1.4333   -0.5336    0.0129 C.3       1 <0>        -0.1138
      4 C4         -1.4126   -2.0635    0.0045 C.3       1 <0>        -0.0399
      5 C5         -2.8264   -2.5851    0.0152 C.2       1 <0>         0.2716
      6 N1         -3.7420   -2.2745    0.8949 N.2       1 <0>        -0.4740
      7 C6         -4.8787   -2.9143    0.6059 C.2       1 <0>         0.1251
      8 C7         -4.6618   -3.6656   -0.5152 C.2       1 <0>         0.0202
      9 N2         -3.3502   -3.4421   -0.8845 N.pl3     1 <0>        -0.5466
     10 C8         -5.6313   -4.5330   -1.1941 C.2       1 <0>         0.1517
     11 N3         -6.8617   -4.7212   -0.8374 N.2       1 <0>        -0.2437
     12 O1         -7.5468   -5.6204   -1.6866 O.3       1 <0>        -0.1571
     13 C9         -6.7922   -5.7253   -2.9109 C.3       1 <0>         0.0553
     14 C10        -5.3669   -5.3588   -2.4387 C.3       1 <0>        -0.1356
     15 C11        -6.8397   -7.1300   -3.4547 C.2       1 <0>         0.4634
     16 O2         -7.4035   -7.9995   -2.8336 O.2       1 <0>        -0.4713
     17 O3         -6.2555   -7.4150   -4.6291 O.3       1 <0>        -0.3483
     18 C12        -6.3394   -8.7671   -5.0841 C.3       1 <0>         0.0325
     19 Cl1        -6.3658   -2.8102    1.4955 Cl        1 <0>         0.0254
     20 H1          1.0039    1.9031    0.0027 H         1 <0>         0.0556
     21 H2         -0.5459    1.8868   -0.8726 H         1 <0>         0.0538
     22 H3         -0.5289    1.8773    0.9072 H         1 <0>         0.0566
     23 H4          0.5123   -0.3556   -0.8948 H         1 <0>         0.0620
     24 H5          0.5293   -0.3651    0.8851 H         1 <0>         0.0657
     25 H6         -1.9435   -0.1821    0.9097 H         1 <0>         0.0807
     26 H7         -1.9605   -0.1726   -0.8702 H         1 <0>         0.0647
     27 H8         -0.9024   -2.4150   -0.8923 H         1 <0>         0.0869
     28 H9         -0.8854   -2.4246    0.8875 H         1 <0>         0.1022
     29 H10        -7.1492   -5.0097   -3.6515 H         1 <0>         0.1333
     30 H11        -4.8486   -4.7668   -3.1930 H         1 <0>         0.1207
     31 H12        -4.8002   -6.2571   -2.1938 H         1 <0>         0.1128
     32 H13        -5.8280   -8.8604   -6.0422 H         1 <0>         0.1090
     33 H14        -5.8678   -9.4258   -4.3549 H         1 <0>         0.0642
     34 H15        -7.3863   -9.0464   -5.2023 H         1 <0>         0.0658
     35 H16        -2.8916   -3.8298   -1.6463 H         1 <0>         0.4299
@<TRIPOS>BOND
     1    1    2 1
     2    1   20 1
     3    1   21 1
     4    1   22 1
     5    2    3 1
     6    2   23 1
     7    2   24 1
     8    3    4 1
     9    3   25 1
    10    3   26 1
    11    4    5 1
    12    4   27 1
    13    4   28 1
    14    5    9 1
    15    5    6 2
    16    6    7 1
    17    7    8 2
    18    7   19 1
    19    8    9 1
    20    8   10 1
    21    9   35 1
    22   10   14 1
    23   10   11 2
    24   11   12 1
    25   12   13 1
    26   13   14 1
    27   13   15 1
    28   13   29 1
    29   14   30 1
    30   14   31 1
    31   15   16 2
    32   15   17 1
    33   17   18 1
    34   18   32 1
    35   18   33 1
    36   18   34 1
@<TRIPOS>MOLECULE
CHEMBL159941
   77    79     0     0     0
SMALL
USER_CHARGES

@<TRIPOS>ATOM
      1 C1         -0.0187    1.5258    0.0104 C.3       1 <0>        -0.1543
      2 C2          0.0021   -0.0041    0.0020 C.3       1 <0>        -0.1262
      3 C3          0.7182   -0.4975   -1.2568 C.3       1 <0>        -0.1208
      4 C4          0.7390   -2.0273   -1.2652 C.3       1 <0>        -0.1213
      5 C5          1.4551   -2.5207   -2.5240 C.3       1 <0>        -0.1180
      6 C6          1.4758   -4.0506   -2.5324 C.3       1 <0>        -0.1176
      7 C7          2.1920   -4.5440   -3.7912 C.3       1 <0>        -0.1335
      8 C8          2.2127   -6.0738   -3.7996 C.3       1 <0>         0.1143
      9 N1          2.8984   -6.5463   -5.0050 N.am      1 <0>        -0.6091
     10 C9          4.3460   -6.7710   -4.9837 C.3       1 <0>         0.0677
     11 C10         2.1976   -6.7742   -6.1334 C.2       1 <0>         0.4958
     12 O1          0.9993   -6.5882   -6.1510 O.2       1 <0>        -0.5107
     13 C11         2.9030   -7.2602   -7.3733 C.3       1 <0>         0.0656
     14 N2          1.9290   -7.4303   -8.4543 N.pl3     1 <0>        -0.4731
     15 C12         1.2947   -8.6287   -8.6138 C.2       1 <0>         0.1450
     16 C13         0.3989   -8.7742   -9.6134 C.2       1 <0>        -0.2422
     17 C14         0.1426   -7.6737  -10.4711 C.2       1 <0>         0.5234
     18 O2         -0.6636   -7.7794  -11.3828 O.2       1 <0>        -0.5107
     19 N3          0.7903   -6.5174  -10.2744 N.2       1 <0>        -0.5834
     20 C15         1.6578   -6.3914   -9.2897 C.2       1 <0>         0.4025
     21 S1          2.4857   -4.8536   -9.0564 S.3       1 <0>        -0.0114
     22 C16         1.8223   -3.7942  -10.3709 C.3       1 <0>        -0.0513
     23 C17         2.4562   -2.4297  -10.2843 C.ar      1 <0>        -0.0987
     24 C18         1.8738   -1.4456   -9.5075 C.ar      1 <0>        -0.0656
     25 C19         2.4544   -0.1941   -9.4270 C.ar      1 <0>        -0.1530
     26 C20         3.6199    0.0739  -10.1247 C.ar      1 <0>         0.1125
     27 C21         4.2023   -0.9125  -10.9025 C.ar      1 <0>        -0.1536
     28 C22         3.6227   -2.1648  -10.9773 C.ar      1 <0>        -0.0663
     29 F1          4.1882    1.2971  -10.0471 F         1 <0>        -0.1352
     30 C23        -0.3169  -10.0849   -9.8152 C.3       1 <0>         0.0125
     31 C24        -1.6506  -10.0419   -9.1150 C.2       1 <0>        -0.2621
     32 C25        -1.7472  -10.3500   -7.7547 C.2       1 <0>         0.2569
     33 N4         -2.9195  -10.3080   -7.1548 N.2       1 <0>        -0.5455
     34 C26        -4.0219   -9.9740   -7.8301 C.2       1 <0>         0.6242
     35 O3         -5.0948   -9.9426   -7.2513 O.2       1 <0>        -0.5312
     36 N5         -3.9659   -9.6709   -9.1405 N.am      1 <0>        -0.5116
     37 C27        -2.7763   -9.6973   -9.7964 C.2       1 <0>         0.2047
     38 C28        -5.1894   -9.3073   -9.8597 C.3       1 <0>         0.0873
     39 C29        -5.3972   -7.7936   -9.7799 C.3       1 <0>        -0.1688
     40 H1          1.0039    1.9031    0.0027 H         1 <0>         0.0532
     41 H2         -0.5459    1.8868   -0.8726 H         1 <0>         0.0533
     42 H3         -0.5289    1.8773    0.9072 H         1 <0>         0.0536
     43 H4          0.5293   -0.3651    0.8851 H         1 <0>         0.0603
     44 H5         -1.0205   -0.3814    0.0098 H         1 <0>         0.0605
     45 H6          0.1910   -0.1364   -2.1398 H         1 <0>         0.0605
     46 H7          1.7408   -0.1202   -1.2645 H         1 <0>         0.0604
     47 H8          1.2661   -2.3884   -0.3821 H         1 <0>         0.0611
     48 H9         -0.2836   -2.4046   -1.2575 H         1 <0>         0.0614
     49 H10         0.9279   -2.1597   -3.4071 H         1 <0>         0.0611
     50 H11         2.4777   -2.1435   -2.5317 H         1 <0>         0.0607
     51 H12         2.0030   -4.4117   -1.6494 H         1 <0>         0.0633
     52 H13         0.4533   -4.4279   -2.5247 H         1 <0>         0.0645
     53 H14         1.6648   -4.1829   -4.6743 H         1 <0>         0.0675
     54 H15         3.2146   -4.1667   -3.7990 H         1 <0>         0.0639
     55 H16         2.7399   -6.4349   -2.9166 H         1 <0>         0.0817
     56 H17         1.1901   -6.4511   -3.7919 H         1 <0>         0.0865
     57 H18         4.5497   -7.7994   -4.6855 H         1 <0>         0.0656
     58 H19         4.7559   -6.5929   -5.9779 H         1 <0>         0.0726
     59 H20         4.8093   -6.0877   -4.2719 H         1 <0>         0.0817
     60 H21         3.6549   -6.5303   -7.6732 H         1 <0>         0.1316
     61 H22         3.3860   -8.2151   -7.1658 H         1 <0>         0.1362
     62 H23         1.5075   -9.4517   -7.9477 H         1 <0>         0.1748
     63 H24         2.0448   -4.2372  -11.3417 H         1 <0>         0.1148
     64 H25         0.7427   -3.7014  -10.2527 H         1 <0>         0.1134
     65 H26         0.9645   -1.6548   -8.9636 H         1 <0>         0.1377
     66 H27         1.9991    0.5746   -8.8203 H         1 <0>         0.1407
     67 H28         5.1112   -0.7044  -11.4474 H         1 <0>         0.1411
     68 H29         4.0793   -2.9358  -11.5803 H         1 <0>         0.1388
     69 H30        -0.4712  -10.2543  -10.8808 H         1 <0>         0.0960
     70 H31         0.2845  -10.8947   -9.4020 H         1 <0>         0.0900
     71 H32        -0.8632  -10.6220   -7.1971 H         1 <0>         0.1679
     72 H33        -2.7256   -9.4509  -10.8466 H         1 <0>         0.1780
     73 H34        -5.0998   -9.6073  -10.9038 H         1 <0>         0.0958
     74 H35        -6.0412   -9.8154   -9.4075 H         1 <0>         0.1050
     75 H36        -5.4868   -7.4937   -8.7358 H         1 <0>         0.0644
     76 H37        -4.5454   -7.2856  -10.2320 H         1 <0>         0.0621
     77 H38        -6.3075   -7.5231  -10.3150 H         1 <0>         0.0810
@<TRIPOS>BOND
     1    1    2 1
     2    1   40 1
     3    1   41 1
     4    1   42 1
     5    2    3 1
     6    2   43 1
     7    2   44 1
     8    3    4 1
     9    3   45 1
    10    3   46 1
    11    4    5 1
    12    4   47 1
    13    4   48 1
    14    5    6 1
    15    5   49 1
    16    5   50 1
    17    6    7 1
    18    6   51 1
    19    6   52 1
    20    7    8 1
    21    7   53 1
    22    7   54 1
    23    8    9 1
    24    8   55 1
    25    8   56 1
    26    9   10 1
    27    9   11 am
    28   10   57 1
    29   10   58 1
    30   10   59 1
    31   11   12 2
    32   11   13 1
    33   13   14 1
    34   13   60 1
    35   13   61 1
    36   14   20 1
    37   14   15 1
    38   15   16 2
    39   15   62 1
    40   16   17 1
    41   16   30 1
    42   17   18 2
    43   17   19 1
    44   19   20 2
    45   20   21 1
    46   21   22 1
    47   22   23 1
    48   22   63 1
    49   22   64 1
    50   23   28 ar
    51   23   24 ar
    52   24   25 ar
    53   24   65 1
    54   25   26 ar
    55   25   66 1
    56   26   27 ar
    57   26   29 1
    58   27   28 ar
    59   27   67 1
    60   28   68 1
    61   30   31 1
    62   30   69 1
    63   30   70 1
    64   31   37 2
    65   31   32 1
    66   32   33 2
    67   32   71 1
    68   33   34 1
    69   34   35 2
    70   34   36 am
    71   36   37 1
    72   36   38 1
    73   37   72 1
    74   38   39 1
    75   38   73 1
    76   38   74 1
    77   39   75 1
    78   39   76 1
    79   39   77 1
@<TRIPOS>MOLECULE
CHEMBL123164
   42    44     0     0     0
SMALL
USER_CHARGES

@<TRIPOS>ATOM
      1 C1         -0.2589    1.6596    0.0703 C.3       1 <0>        -0.1548
      2 C2         -0.1908    0.1314    0.0432 C.3       1 <0>        -0.1241
      3 C3         -1.6089   -0.4427    0.0584 C.3       1 <0>        -0.1141
      4 C4         -1.5409   -1.9709    0.0312 C.3       1 <0>        -0.0399
      5 C5         -2.9377   -2.5363    0.0462 C.2       1 <0>         0.2723
      6 N1         -3.8555   -2.2648    0.9366 N.2       1 <0>        -0.4739
      7 C6         -4.9741   -2.9362    0.6484 C.2       1 <0>         0.1258
      8 C7         -4.7429   -3.6669   -0.4834 C.2       1 <0>         0.0194
      9 N2         -3.4418   -3.3983   -0.8599 N.pl3     1 <0>        -0.5465
     10 C8         -5.6904   -4.5559   -1.1654 C.2       1 <0>         0.1529
     11 N3         -6.9115   -4.7865   -0.8018 N.2       1 <0>        -0.2426
     12 O1         -7.5796   -5.6852   -1.6649 O.3       1 <0>        -0.1568
     13 C9         -6.5765   -6.3776   -2.4353 C.3       1 <0>         0.0598
     14 C10        -5.4104   -5.3582   -2.4220 C.3       1 <0>        -0.1367
     15 C11        -7.0542   -6.6263   -3.8428 C.2       1 <0>         0.4619
     16 O2         -8.1256   -6.1981   -4.2017 O.2       1 <0>        -0.4542
     17 O3         -6.2893   -7.3235   -4.6980 O.3       1 <0>        -0.2909
     18 C12        -6.8019   -7.6117   -5.9234 C.ar      1 <0>         0.0768
     19 C13        -6.8471   -6.6328   -6.9054 C.ar      1 <0>        -0.1178
     20 C14        -7.3681   -6.9283   -8.1502 C.ar      1 <0>        -0.1045
     21 C15        -7.8444   -8.1985   -8.4178 C.ar      1 <0>        -0.1108
     22 C16        -7.8010   -9.1757   -7.4407 C.ar      1 <0>        -0.1047
     23 C17        -7.2756   -8.8868   -6.1961 C.ar      1 <0>        -0.1149
     24 Cl1        -6.4566   -2.8890    1.5504 Cl        1 <0>         0.0256
     25 H1          0.7514    2.0686    0.0595 H         1 <0>         0.0557
     26 H2         -0.8040    2.0147   -0.8043 H         1 <0>         0.0537
     27 H3         -0.7726    1.9844    0.9752 H         1 <0>         0.0566
     28 H4          0.3229   -0.1934   -0.8617 H         1 <0>         0.0620
     29 H5          0.3543   -0.2236    0.9178 H         1 <0>         0.0658
     30 H6         -2.1227   -0.1179    0.9632 H         1 <0>         0.0807
     31 H7         -2.1540   -0.0876   -0.8162 H         1 <0>         0.0646
     32 H8         -1.0271   -2.2957   -0.8736 H         1 <0>         0.0870
     33 H9         -0.9958   -2.3259    0.9058 H         1 <0>         0.1026
     34 H10        -6.2893   -7.3114   -1.9519 H         1 <0>         0.1369
     35 H11        -5.4420   -4.7189   -3.3043 H         1 <0>         0.1139
     36 H12        -4.4510   -5.8704   -2.3482 H         1 <0>         0.1220
     37 H13        -6.4755   -5.6404   -6.6968 H         1 <0>         0.1274
     38 H14        -7.4038   -6.1665   -8.9149 H         1 <0>         0.1332
     39 H15        -8.2514   -8.4275   -9.3916 H         1 <0>         0.1319
     40 H16        -8.1739  -10.1670   -7.6520 H         1 <0>         0.1351
     41 H17        -7.2378   -9.6517   -5.4346 H         1 <0>         0.1335
     42 H18        -2.9774   -3.7625   -1.6297 H         1 <0>         0.4300
@<TRIPOS>BOND
     1    1    2 1
     2    1   25 1
     3    1   26 1
     4    1   27 1
     5    2    3 1
     6    2   28 1
     7    2   29 1
     8    3    4 1
     9    3   30 1
    10    3   31 1
    11    4    5 1
    12    4   32 1
    13    4   33 1
    14    5    9 1
    15    5    6 2
    16    6    7 1
    17    7    8 2
    18    7   24 1
    19    8    9 1
    20    8   10 1
    21    9   42 1
    22   10   14 1
    23   10   11 2
    24   11   12 1
    25   12   13 1
    26   13   14 1
    27   13   15 1
    28   13   34 1
    29   14   35 1
    30   14   36 1
    31   15   16 2
    32   15   17 1
    33   17   18 1
    34   18   23 ar
    35   18   19 ar
    36   19   20 ar
    37   19   37 1
    38   20   21 ar
    39   20   38 1
    40   21   22 ar
    41   21   39 1
    42   22   23 ar
    43   22   40 1
    44   23   41 1
@<TRIPOS>MOLECULE
CHEMBL123164__1
   42    44     0     0     0
SMALL
USER_CHARGES

@<TRIPOS>ATOM
      1 C1          0.0295    1.5993   -0.2017 C.3       1 <0>        -0.1547
      2 C2          0.0668    0.0698   -0.2095 C.3       1 <0>        -0.1242
      3 C3         -1.3616   -0.4755   -0.1517 C.3       1 <0>        -0.1138
      4 C4         -1.3243   -2.0050   -0.1594 C.3       1 <0>        -0.0400
      5 C5         -2.7312   -2.5421   -0.1025 C.2       1 <0>         0.2723
      6 N1         -3.6213   -2.2404    0.8061 N.2       1 <0>        -0.4739
      7 C6         -4.7596   -2.8931    0.5546 C.2       1 <0>         0.1259
      8 C7         -4.5708   -3.6433   -0.5722 C.2       1 <0>         0.0194
      9 N2         -3.2744   -3.4059   -0.9840 N.pl3     1 <0>        -0.5466
     10 C8         -5.5522   -4.5221   -1.2186 C.2       1 <0>         0.1534
     11 N3         -6.7683   -4.7233   -0.8221 N.2       1 <0>        -0.2426
     12 O1         -7.4706   -5.6310   -1.6479 O.3       1 <0>        -0.1564
     13 C9         -6.7549   -5.7292   -2.8959 C.3       1 <0>         0.0594
     14 C10        -5.3191   -5.3465   -2.4704 C.3       1 <0>        -0.1368
     15 C11        -6.8045   -7.1349   -3.4366 C.2       1 <0>         0.4625
     16 O2         -7.3383   -8.0099   -2.7968 O.2       1 <0>        -0.4540
     17 O3         -6.2554   -7.4151   -4.6294 O.3       1 <0>        -0.2907
     18 C12        -6.2323   -8.7131   -5.0322 C.ar      1 <0>         0.0768
     19 C13        -7.3843   -9.3081   -5.5256 C.ar      1 <0>        -0.1164
     20 C14        -7.3581  -10.6273   -5.9348 C.ar      1 <0>        -0.1035
     21 C15        -6.1851  -11.3546   -5.8529 C.ar      1 <0>        -0.1109
     22 C16        -5.0357  -10.7640   -5.3610 C.ar      1 <0>        -0.1056
     23 C17        -5.0552   -9.4435   -4.9559 C.ar      1 <0>        -0.1167
     24 Cl1        -6.2182   -2.8041    1.4918 Cl        1 <0>         0.0257
     25 H1          1.0471    1.9878   -0.2429 H         1 <0>         0.0556
     26 H2         -0.5299    1.9535   -1.0676 H         1 <0>         0.0538
     27 H3         -0.4552    1.9463    0.7108 H         1 <0>         0.0566
     28 H4          0.5515   -0.2772   -1.1220 H         1 <0>         0.0620
     29 H5          0.6262   -0.2844    0.6564 H         1 <0>         0.0657
     30 H6         -1.8463   -0.1285    0.7609 H         1 <0>         0.0807
     31 H7         -1.9210   -0.1213   -1.0175 H         1 <0>         0.0648
     32 H8         -0.8395   -2.3520   -1.0719 H         1 <0>         0.0870
     33 H9         -0.7649   -2.3592    0.7064 H         1 <0>         0.1024
     34 H10        -7.1435   -5.0184   -3.6252 H         1 <0>         0.1357
     35 H11        -4.8320   -4.7497   -3.2416 H         1 <0>         0.1224
     36 H12        -4.7350   -6.2383   -2.2432 H         1 <0>         0.1133
     37 H13        -8.3009   -8.7405   -5.5895 H         1 <0>         0.1299
     38 H14        -8.2548  -11.0910   -6.3187 H         1 <0>         0.1338
     39 H15        -6.1666  -12.3858   -6.1732 H         1 <0>         0.1319
     40 H16        -4.1207  -11.3343   -5.2977 H         1 <0>         0.1344
     41 H17        -4.1561   -8.9813   -4.5759 H         1 <0>         0.1313
     42 H18        -2.8364   -3.7895   -1.7599 H         1 <0>         0.4300
@<TRIPOS>BOND
     1    1    2 1
     2    1   25 1
     3    1   26 1
     4    1   27 1
     5    2    3 1
     6    2   28 1
     7    2   29 1
     8    3    4 1
     9    3   30 1
    10    3   31 1
    11    4    5 1
    12    4   32 1
    13    4   33 1
    14    5    9 1
    15    5    6 2
    16    6    7 1
    17    7    8 2
    18    7   24 1
    19    8    9 1
    20    8   10 1
    21    9   42 1
    22   10   14 1
    23   10   11 2
    24   11   12 1
    25   12   13 1
    26   13   14 1
    27   13   15 1
    28   13   34 1
    29   14   35 1
    30   14   36 1
    31   15   16 2
    32   15   17 1
    33   17   18 1
    34   18   23 ar
    35   18   19 ar
    36   19   20 ar
    37   19   37 1
    38   20   21 ar
    39   20   38 1
    40   21   22 ar
    41   21   39 1
    42   22   23 ar
    43   22   40 1
    44   23   41 1
@<TRIPOS>MOLECULE
CHEMBL315812
   75    77     0     0     0
SMALL
USER_CHARGES

@<TRIPOS>ATOM
      1 C1          4.0648   -4.0497   -6.1591 C.3       1 <0>        -0.1533
      2 C2          3.2621   -4.4492   -4.9194 C.3       1 <0>        -0.1259
      3 C3          4.1722   -5.1939   -3.9406 C.3       1 <0>        -0.1214
      4 C4          3.3695   -5.5934   -2.7009 C.3       1 <0>        -0.1207
      5 C5          4.2797   -6.3381   -1.7222 C.3       1 <0>        -0.1207
      6 C6          3.4770   -6.7375   -0.4824 C.3       1 <0>        -0.1200
      7 C7          4.3871   -7.4823    0.4963 C.3       1 <0>        -0.1204
      8 C8          3.5844   -7.8817    1.7361 C.3       1 <0>        -0.1189
      9 C9          4.4946   -8.6265    2.7148 C.3       1 <0>        -0.1196
     10 C10         3.6919   -9.0259    3.9546 C.3       1 <0>        -0.1073
     11 C11         4.6020   -9.7707    4.9333 C.3       1 <0>        -0.1581
     12 C12         3.8114  -10.1641    6.1544 C.2       1 <0>         0.4647
     13 O1          2.6612   -9.7988    6.2759 O.2       1 <0>        -0.4572
     14 C13         4.4335  -10.9898    7.1974 C.2       1 <0>        -0.2460
     15 C14         4.5343  -12.4555    7.2192 C.ar      1 <0>        -0.0759
     16 C15         4.1174  -13.4652    6.3498 C.ar      1 <0>        -0.0787
     17 C16         4.3658  -14.7721    6.6587 C.ar      1 <0>        -0.1493
     18 C17         5.0307  -15.1050    7.8323 C.ar      1 <0>        -0.1153
     19 C18         5.4503  -14.1265    8.7041 C.ar      1 <0>        -0.1188
     20 C19         5.2084  -12.7852    8.4099 C.ar      1 <0>         0.0851
     21 N1          5.5002  -11.6167    9.0698 N.pl3     1 <0>        -0.4420
     22 C20         5.0504  -10.5417    8.3586 C.2       1 <0>         0.0965
     23 C21         5.1933   -9.1306    8.7606 C.2       1 <0>         0.5385
     24 O2          5.8383   -8.8413    9.7589 O.co2     1 <0>        -0.6636
     25 O3          4.6669   -8.2490    8.0959 O.co2     1 <0>        -0.6538
     26 C22         6.2000  -11.5350   10.3542 C.3       1 <0>         0.1135
     27 C23         7.7065  -11.4305   10.1084 C.3       1 <0>         0.0581
     28 O4          8.3891  -11.3508   11.3613 O.3       1 <0>        -0.3091
     29 C24         9.7417  -11.2528   11.3206 C.ar      1 <0>         0.1274
     30 C25        10.3984  -11.2281   10.0949 C.ar      1 <0>        -0.2193
     31 C26        11.7701  -11.1292   10.0488 C.ar      1 <0>        -0.0502
     32 C27        12.5042  -11.0530   11.2376 C.ar      1 <0>        -0.1726
     33 C28        11.8393  -11.0778   12.4680 C.ar      1 <0>        -0.0494
     34 C29        10.4665  -11.1717   12.5043 C.ar      1 <0>        -0.1408
     35 C30         9.7485  -11.1923   13.8291 C.3       1 <0>        -0.0948
     36 C31        13.9722  -10.9476   11.1934 C.2       1 <0>         0.5259
     37 O5         14.5518  -10.9265   10.1163 O.co2     1 <0>        -0.6940
     38 O6         14.6122  -10.8811   12.2339 O.co2     1 <0>        -0.6954
     39 H1          4.4602   -4.9445   -6.6398 H         1 <0>         0.0527
     40 H2          3.4164   -3.5192   -6.8564 H         1 <0>         0.0514
     41 H3          4.8896   -3.4009   -5.8645 H         1 <0>         0.0533
     42 H4          2.8666   -3.5544   -4.4387 H         1 <0>         0.0600
     43 H5          2.4373   -5.0980   -5.2140 H         1 <0>         0.0595
     44 H6          4.5677   -6.0887   -4.4213 H         1 <0>         0.0601
     45 H7          4.9970   -4.5451   -3.6460 H         1 <0>         0.0608
     46 H8          2.9741   -4.6985   -2.2202 H         1 <0>         0.0603
     47 H9          2.5447   -6.2422   -2.9956 H         1 <0>         0.0595
     48 H10         4.6751   -7.2329   -2.2028 H         1 <0>         0.0597
     49 H11         5.1045   -5.6893   -1.4275 H         1 <0>         0.0608
     50 H12         3.0815   -5.8427   -0.0017 H         1 <0>         0.0604
     51 H13         2.6522   -7.3864   -0.7771 H         1 <0>         0.0590
     52 H14         4.7826   -8.3771    0.0157 H         1 <0>         0.0593
     53 H15         5.2119   -6.8335    0.7910 H         1 <0>         0.0613
     54 H16         3.1890   -6.9869    2.2168 H         1 <0>         0.0618
     55 H17         2.7596   -8.5305    1.4414 H         1 <0>         0.0588
     56 H18         4.8900   -9.5213    2.2342 H         1 <0>         0.0590
     57 H19         5.3194   -7.9777    3.0095 H         1 <0>         0.0633
     58 H20         3.2964   -8.1311    4.4352 H         1 <0>         0.0707
     59 H21         2.8670   -9.6747    3.6599 H         1 <0>         0.0603
     60 H22         4.9974  -10.6655    4.4527 H         1 <0>         0.0868
     61 H23         5.4268   -9.1218    5.2280 H         1 <0>         0.1005
     62 H24         3.5997  -13.2135    5.4360 H         1 <0>         0.1148
     63 H25         4.0426  -15.5527    5.9859 H         1 <0>         0.1158
     64 H26         5.2199  -16.1429    8.0630 H         1 <0>         0.1188
     65 H27         5.9663  -14.3967    9.6136 H         1 <0>         0.1175
     66 H28         5.8588  -10.6544   10.8985 H         1 <0>         0.1271
     67 H29         5.9887  -12.4291   10.9406 H         1 <0>         0.0833
     68 H30         8.0477  -12.3111    9.5641 H         1 <0>         0.0540
     69 H31         7.9178  -10.5364    9.5220 H         1 <0>         0.0756
     70 H32         9.8309  -11.2869    9.1779 H         1 <0>         0.1191
     71 H33        12.2793  -11.1108    9.0965 H         1 <0>         0.1259
     72 H34        12.4020  -11.0196   13.3881 H         1 <0>         0.1300
     73 H35         9.6501  -12.2219   14.1730 H         1 <0>         0.0574
     74 H36        10.3179  -10.6179   14.5599 H         1 <0>         0.0588
     75 H37         8.7583  -10.7519   13.7126 H         1 <0>         0.0657
@<TRIPOS>BOND
     1    1    2 1
     2    1   39 1
     3    1   40 1
     4    1   41 1
     5    2    3 1
     6    2   42 1
     7    2   43 1
     8    3    4 1
     9    3   44 1
    10    3   45 1
    11    4    5 1
    12    4   46 1
    13    4   47 1
    14    5    6 1
    15    5   48 1
    16    5   49 1
    17    6    7 1
    18    6   50 1
    19    6   51 1
    20    7    8 1
    21    7   52 1
    22    7   53 1
    23    8    9 1
    24    8   54 1
    25    8   55 1
    26    9   10 1
    27    9   56 1
    28    9   57 1
    29   10   11 1
    30   10   58 1
    31   10   59 1
    32   11   12 1
    33   11   60 1
    34   11   61 1
    35   12   13 2
    36   12   14 1
    37   14   22 2
    38   14   15 1
    39   15   20 ar
    40   15   16 ar
    41   16   17 ar
    42   16   62 1
    43   17   18 ar
    44   17   63 1
    45   18   19 ar
    46   18   64 1
    47   19   20 ar
    48   19   65 1
    49   20   21 1
    50   21   22 1
    51   21   26 1
    52   22   23 1
    53   23   24 2
    54   23   25 1
    55   26   27 1
    56   26   66 1
    57   26   67 1
    58   27   28 1
    59   27   68 1
    60   27   69 1
    61   28   29 1
    62   29   34 ar
    63   29   30 ar
    64   30   31 ar
    65   30   70 1
    66   31   32 ar
    67   31   71 1
    68   32   33 ar
    69   32   36 1
    70   33   34 ar
    71   33   72 1
    72   34   35 1
    73   35   73 1
    74   35   74 1
    75   35   75 1
    76   36   37 2
    77   36   38 1
@<TRIPOS>MOLECULE
CHEMBL179309
   58    61     0     0     0
SMALL
USER_CHARGES

@<TRIPOS>ATOM
      1 C1         -0.6955    2.0222    0.0077 C.3       1 <0>        -0.1593
      2 C2         -0.3142    0.5406    0.0236 C.3       1 <0>        -0.0708
      3 C3         -1.5619   -0.2981    0.1282 C.2       1 <0>         0.1456
      4 C4         -2.2180   -0.6081    1.3048 C.2       1 <0>        -0.2284
      5 C5         -3.3743   -1.4408    0.9214 C.ar      1 <0>        -0.0802
      6 C6         -4.4032   -2.0593    1.6337 C.ar      1 <0>         0.1708
      7 C7         -5.3586   -2.7902    0.9531 C.ar      1 <0>        -0.2158
      8 C8         -5.3006   -2.9122   -0.4301 C.ar      1 <0>        -0.0394
      9 C9         -4.2878   -2.3048   -1.1419 C.ar      1 <0>        -0.1345
     10 C10        -3.3146   -1.5629   -0.4731 C.ar      1 <0>         0.1491
     11 N1         -2.2117   -0.8556   -0.9100 N.pl3     1 <0>        -0.4496
     12 C11        -1.8036   -0.7316   -2.3115 C.3       1 <0>         0.1407
     13 C12        -2.3236    0.5666   -2.8732 C.ar      1 <0>        -0.1192
     14 C13        -3.6206    0.6454   -3.3446 C.ar      1 <0>        -0.1010
     15 C14        -4.0976    1.8361   -3.8598 C.ar      1 <0>        -0.1203
     16 C15        -3.2777    2.9482   -3.9032 C.ar      1 <0>        -0.1070
     17 C16        -1.9809    2.8696   -3.4309 C.ar      1 <0>        -0.1214
     18 C17        -1.5053    1.6800   -2.9118 C.ar      1 <0>        -0.0984
     19 C18        -4.4543   -2.5917   -2.6192 C.3       1 <0>        -0.0783
     20 C19        -5.4193   -3.7940   -2.6904 C.3       1 <0>        -0.1187
     21 C20        -6.2213   -3.6507   -1.3798 C.3       1 <0>        -0.0795
     22 O1         -4.4647   -1.9440    2.9861 O.3       1 <0>        -0.2916
     23 C21        -5.5469   -2.6050    3.6450 C.3       1 <0>         0.0686
     24 C22        -5.4513   -2.3672    5.1300 C.2       1 <0>         0.4612
     25 O2         -4.5491   -1.7001    5.5782 O.2       1 <0>        -0.4781
     26 O3         -6.3685   -2.8964    5.9549 O.3       1 <0>        -0.3495
     27 C23        -6.2162   -2.6304    7.3506 C.3       1 <0>         0.0350
     28 C24        -1.8421   -0.1949    2.6558 C.2       1 <0>         0.4427
     29 O4         -2.3240    0.8105    3.1401 O.2       1 <0>        -0.4054
     30 C25        -0.8673   -1.0070    3.4399 C.2       1 <0>         0.4896
     31 O5         -0.3281   -1.9673    2.9294 O.2       1 <0>        -0.5051
     32 N2         -0.5851   -0.6745    4.7151 N.am      1 <0>        -0.8274
     33 H1          0.1901    2.6231   -0.1988 H         1 <0>         0.0679
     34 H2         -1.4419    2.1970   -0.7672 H         1 <0>         0.0693
     35 H3         -1.1064    2.3021    0.9777 H         1 <0>         0.0624
     36 H4          0.2149    0.2917   -0.8963 H         1 <0>         0.0822
     37 H5          0.3308    0.3406    0.8792 H         1 <0>         0.0897
     38 H6         -6.1562   -3.2705    1.5004 H         1 <0>         0.1318
     39 H7         -0.7155   -0.7453   -2.3756 H         1 <0>         0.1009
     40 H8         -2.2118   -1.5645   -2.8839 H         1 <0>         0.1067
     41 H9         -4.2613   -0.2234   -3.3107 H         1 <0>         0.1265
     42 H10        -5.1108    1.8975   -4.2288 H         1 <0>         0.1246
     43 H11        -3.6501    3.8783   -4.3064 H         1 <0>         0.1244
     44 H12        -1.3402    3.7384   -3.4651 H         1 <0>         0.1257
     45 H13        -0.4933    1.6196   -2.5394 H         1 <0>         0.1254
     46 H14        -4.8869   -1.7289   -3.1257 H         1 <0>         0.0783
     47 H15        -3.4939   -2.8506   -3.0648 H         1 <0>         0.0702
     48 H16        -6.0754   -3.7137   -3.5571 H         1 <0>         0.0788
     49 H17        -4.8673   -4.7338   -2.7064 H         1 <0>         0.0751
     50 H18        -6.4690   -4.6335   -0.9786 H         1 <0>         0.0786
     51 H19        -7.1288   -3.0724   -1.5530 H         1 <0>         0.0835
     52 H20        -6.4931   -2.2110    3.2741 H         1 <0>         0.1101
     53 H21        -5.4952   -3.6751    3.4443 H         1 <0>         0.1101
     54 H22        -7.0214   -3.1150    7.9028 H         1 <0>         0.1075
     55 H23        -5.2566   -3.0186    7.6919 H         1 <0>         0.0634
     56 H24        -6.2545   -1.5545    7.5217 H         1 <0>         0.0639
     57 H25        -1.0159    0.0928    5.1230 H         1 <0>         0.4110
     58 H26         0.0489   -1.2027    5.2251 H         1 <0>         0.4077
@<TRIPOS>BOND
     1    1    2 1
     2    1   33 1
     3    1   34 1
     4    1   35 1
     5    2    3 1
     6    2   36 1
     7    2   37 1
     8    3   11 1
     9    3    4 2
    10    4    5 1
    11    4   28 1
    12    5   10 ar
    13    5    6 ar
    14    6    7 ar
    15    6   22 1
    16    7    8 ar
    17    7   38 1
    18    8   21 1
    19    8    9 ar
    20    9   10 ar
    21    9   19 1
    22   10   11 1
    23   11   12 1
    24   12   13 1
    25   12   39 1
    26   12   40 1
    27   13   18 ar
    28   13   14 ar
    29   14   15 ar
    30   14   41 1
    31   15   16 ar
    32   15   42 1
    33   16   17 ar
    34   16   43 1
    35   17   18 ar
    36   17   44 1
    37   18   45 1
    38   19   20 1
    39   19   46 1
    40   19   47 1
    41   20   21 1
    42   20   48 1
    43   20   49 1
    44   21   50 1
    45   21   51 1
    46   22   23 1
    47   23   24 1
    48   23   52 1
    49   23   53 1
    50   24   25 2
    51   24   26 1
    52   26   27 1
    53   27   54 1
    54   27   55 1
    55   27   56 1
    56   28   29 2
    57   28   30 1
    58   30   31 2
    59   30   32 am
    60   32   57 1
    61   32   58 1
@<TRIPOS>MOLECULE
CHEMBL422127
   59    62     0     0     0
SMALL
USER_CHARGES

@<TRIPOS>ATOM
      1 C1         -0.0184    1.5028    0.0103 C.3       1 <0>        -0.1027
      2 C2          0.0021   -0.0041    0.0020 C.2       1 <0>         0.1186
      3 C3          0.0079   -0.7686   -1.1014 C.2       1 <0>        -0.1670
      4 C4          0.0296   -2.1641   -0.6562 C.ar      1 <0>        -0.0459
      5 C5          0.0435   -3.3930   -1.3198 C.ar      1 <0>        -0.1138
      6 C6          0.0629   -4.5631   -0.5876 C.ar      1 <0>         0.1017
      7 C7          0.0681   -4.5202    0.8044 C.ar      1 <0>        -0.1808
      8 C8          0.0545   -3.3144    1.4689 C.ar      1 <0>        -0.0849
      9 C9          0.0354   -2.1241    0.7494 C.ar      1 <0>         0.0749
     10 N1          0.0234   -0.7953    1.1178 N.pl3     1 <0>        -0.4719
     11 C10         0.0297   -0.3042    2.4980 C.3       1 <0>         0.1511
     12 C11        -1.3887   -0.1553    2.9847 C.ar      1 <0>        -0.0736
     13 C12        -2.0601    1.0397    2.8014 C.ar      1 <0>        -0.1413
     14 C13        -3.3614    1.1796    3.2467 C.ar      1 <0>        -0.0773
     15 C14        -3.9942    0.1252    3.8767 C.ar      1 <0>        -0.2020
     16 C15        -3.3230   -1.0744    4.0618 C.ar      1 <0>         0.1324
     17 C16        -2.0190   -1.2142    3.6085 C.ar      1 <0>        -0.1301
     18 O1         -3.9433   -2.1129    4.6811 O.3       1 <0>        -0.3075
     19 C17        -5.2876   -1.8994    5.1162 C.3       1 <0>         0.1027
     20 C18        -5.8070   -3.1511    5.7755 C.ar      1 <0>        -0.0993
     21 C19        -6.4443   -4.1171    5.0194 C.ar      1 <0>        -0.0947
     22 C20        -6.9207   -5.2652    5.6241 C.ar      1 <0>        -0.1226
     23 C21        -6.7594   -5.4476    6.9848 C.ar      1 <0>        -0.1081
     24 C22        -6.1213   -4.4821    7.7408 C.ar      1 <0>        -0.1230
     25 C23        -5.6411   -3.3359    7.1353 C.ar      1 <0>        -0.0951
     26 O2          0.0766   -5.7626   -1.2282 O.3       1 <0>        -0.3205
     27 C24         0.0964   -6.9345   -0.4107 C.3       1 <0>         0.0290
     28 C25        -0.0059   -0.2832   -2.5281 C.3       1 <0>        -0.0541
     29 C26         1.4102   -0.1010   -3.0103 C.2       1 <0>         0.5119
     30 O3          2.3391   -0.3415   -2.2686 O.2       1 <0>        -0.5133
     31 N2          1.6444    0.3294   -4.2659 N.am      1 <0>        -0.5862
     32 N3          2.9279    0.4946   -4.7030 N.3       1 <0>        -0.6048
     33 H1          1.0042    1.8801    0.0026 H         1 <0>         0.0819
     34 H2         -0.5455    1.8639   -0.8728 H         1 <0>         0.0841
     35 H3         -0.5286    1.8543    0.9071 H         1 <0>         0.0714
     36 H4          0.0388   -3.4276   -2.3992 H         1 <0>         0.1247
     37 H5          0.0826   -5.4414    1.3679 H         1 <0>         0.1300
     38 H6          0.0587   -3.2928    2.5486 H         1 <0>         0.1200
     39 H7          0.5593   -1.0138    3.1337 H         1 <0>         0.0976
     40 H8          0.5308    0.6630    2.5373 H         1 <0>         0.1012
     41 H9         -1.5669    1.8652    2.3098 H         1 <0>         0.1261
     42 H10        -3.8836    2.1138    3.1023 H         1 <0>         0.1283
     43 H11        -5.0106    0.2352    4.2250 H         1 <0>         0.1291
     44 H12        -1.4959   -2.1488    3.7472 H         1 <0>         0.1290
     45 H13        -5.3120   -1.0759    5.8299 H         1 <0>         0.0721
     46 H14        -5.9129   -1.6548    4.2576 H         1 <0>         0.0718
     47 H15        -6.5703   -3.9745    3.9563 H         1 <0>         0.1240
     48 H16        -7.4193   -6.0195    5.0335 H         1 <0>         0.1262
     49 H17        -7.1323   -6.3443    7.4574 H         1 <0>         0.1253
     50 H18        -5.9956   -4.6244    8.8039 H         1 <0>         0.1262
     51 H19        -5.1392   -2.5832    7.7253 H         1 <0>         0.1241
     52 H20        -0.7906   -6.9507    0.2226 H         1 <0>         0.0534
     53 H21         0.1057   -7.8204   -1.0457 H         1 <0>         0.0978
     54 H22         0.9891   -6.9262    0.2146 H         1 <0>         0.0535
     55 H23        -0.5122   -1.0161   -3.1563 H         1 <0>         0.0996
     56 H24        -0.5337    0.6689   -2.5829 H         1 <0>         0.1004
     57 H25         0.9014    0.5218   -4.8591 H         1 <0>         0.3991
     58 H26         3.4571   -0.3586   -4.6017 H         1 <0>         0.3455
     59 H27         2.9456    0.8198   -5.6580 H         1 <0>         0.3554
@<TRIPOS>BOND
     1    1    2 1
     2    1   33 1
     3    1   34 1
     4    1   35 1
     5    2   10 1
     6    2    3 2
     7    3    4 1
     8    3   28 1
     9    4    9 ar
    10    4    5 ar
    11    5    6 ar
    12    5   36 1
    13    6    7 ar
    14    6   26 1
    15    7    8 ar
    16    7   37 1
    17    8    9 ar
    18    8   38 1
    19    9   10 1
    20   10   11 1
    21   11   12 1
    22   11   39 1
    23   11   40 1
    24   12   17 ar
    25   12   13 ar
    26   13   14 ar
    27   13   41 1
    28   14   15 ar
    29   14   42 1
    30   15   16 ar
    31   15   43 1
    32   16   17 ar
    33   16   18 1
    34   17   44 1
    35   18   19 1
    36   19   20 1
    37   19   45 1
    38   19   46 1
    39   20   25 ar
    40   20   21 ar
    41   21   22 ar
    42   21   47 1
    43   22   23 ar
    44   22   48 1
    45   23   24 ar
    46   23   49 1
    47   24   25 ar
    48   24   50 1
    49   25   51 1
    50   26   27 1
    51   27   52 1
    52   27   53 1
    53   27   54 1
    54   28   29 1
    55   28   55 1
    56   28   56 1
    57   29   30 2
    58   29   31 am
    59   31   32 1
    60   31   57 1
    61   32   58 1
    62   32   59 1
@<TRIPOS>MOLECULE
CHEMBL361552
   51    54     0     0     0
SMALL
USER_CHARGES

@<TRIPOS>ATOM
      1 C1          0.1281    1.5618    0.1300 C.3       1 <0>        -0.0987
      2 C2          0.1144    0.0557    0.0792 C.2       1 <0>         0.1138
      3 C3          0.0596   -0.7029   -1.0752 C.2       1 <0>        -0.2104
      4 C4          0.0679   -2.1126   -0.6394 C.ar      1 <0>        -0.0936
      5 C5          0.0301   -3.3358   -1.3107 C.ar      1 <0>         0.1899
      6 C6          0.0521   -4.5117   -0.5847 C.ar      1 <0>        -0.2343
      7 C7          0.1113   -4.4829    0.8035 C.ar      1 <0>        -0.0307
      8 C8          0.1488   -3.2792    1.4750 C.ar      1 <0>        -0.1654
      9 C9          0.1277   -2.0819    0.7601 C.ar      1 <0>         0.1520
     10 N1          0.1595   -0.7575    1.1504 N.pl3     1 <0>        -0.4550
     11 C10         0.2297   -0.3005    2.5405 C.3       1 <0>         0.1446
     12 C11         1.6641   -0.0140    2.9033 C.ar      1 <0>        -0.1118
     13 C12         2.4212   -0.9780    3.5424 C.ar      1 <0>        -0.1013
     14 C13         3.7369   -0.7152    3.8752 C.ar      1 <0>        -0.1205
     15 C14         4.2957    0.5114    3.5684 C.ar      1 <0>        -0.1118
     16 C15         3.5389    1.4750    2.9284 C.ar      1 <0>        -0.1207
     17 C16         2.2244    1.2107    2.5918 C.ar      1 <0>        -0.1031
     18 C17         0.2097   -3.5251    2.9677 C.3       1 <0>        -0.0689
     19 C18        -0.2347   -4.9914    3.1535 C.3       1 <0>        -0.1173
     20 C19         0.1450   -5.6248    1.7984 C.3       1 <0>        -0.0789
     21 O1         -0.0284   -3.3703   -2.6677 O.3       1 <0>        -0.2757
     22 C20        -0.0644   -4.6595   -3.2830 C.3       1 <0>        -0.0071
     23 C21        -0.1275   -4.5000   -4.7802 C.2       1 <0>         0.5025
     24 O2         -0.1404   -3.3856   -5.2745 O.co2     1 <0>        -0.6685
     25 O3         -0.1655   -5.4854   -5.4972 O.co2     1 <0>        -0.6885
     26 C22         0.0042   -0.2083   -2.4499 C.2       1 <0>         0.4453
     27 O4         -1.0650    0.0882   -2.9465 O.2       1 <0>        -0.4107
     28 C23         1.2594   -0.0676   -3.2430 C.2       1 <0>         0.4972
     29 O5          2.3152   -0.4492   -2.7811 O.2       1 <0>        -0.5062
     30 N2          1.2216    0.4832   -4.4724 N.am      1 <0>        -0.8258
     31 H1          1.1584    1.9144    0.1774 H         1 <0>         0.0832
     32 H2         -0.3513    1.9598   -0.7644 H         1 <0>         0.0835
     33 H3         -0.4129    1.9005    1.0135 H         1 <0>         0.0752
     34 H4          0.0226   -5.4603   -1.1002 H         1 <0>         0.1292
     35 H5         -0.3623    0.6076    2.6548 H         1 <0>         0.0969
     36 H6         -0.1635   -1.0757    3.1982 H         1 <0>         0.1025
     37 H7          1.9846   -1.9363    3.7822 H         1 <0>         0.1268
     38 H8          4.3281   -1.4680    4.3752 H         1 <0>         0.1232
     39 H9          5.3234    0.7170    3.8290 H         1 <0>         0.1220
     40 H10         3.9753    2.4335    2.6890 H         1 <0>         0.1234
     41 H11         1.6343    1.9622    2.0885 H         1 <0>         0.1241
     42 H12         1.2280   -3.3894    3.3322 H         1 <0>         0.0713
     43 H13        -0.4724   -2.8541    3.4898 H         1 <0>         0.0629
     44 H14         0.3141   -5.4625    3.9690 H         1 <0>         0.0735
     45 H15        -1.3098   -5.0522    3.3222 H         1 <0>         0.0715
     46 H16        -0.5810   -6.3892    1.5216 H         1 <0>         0.0754
     47 H17         1.1460   -6.0533    1.8485 H         1 <0>         0.0799
     48 H18         0.8339   -5.2155   -3.0144 H         1 <0>         0.0602
     49 H19        -0.9444   -5.2023   -2.9380 H         1 <0>         0.0602
     50 H20         0.3779    0.7881   -4.8415 H         1 <0>         0.4090
     51 H21         2.0379    0.5747   -4.9883 H         1 <0>         0.4055
@<TRIPOS>BOND
     1    1    2 1
     2    1   31 1
     3    1   32 1
     4    1   33 1
     5    2   10 1
     6    2    3 2
     7    3    4 1
     8    3   26 1
     9    4    9 ar
    10    4    5 ar
    11    5    6 ar
    12    5   21 1
    13    6    7 ar
    14    6   34 1
    15    7   20 1
    16    7    8 ar
    17    8    9 ar
    18    8   18 1
    19    9   10 1
    20   10   11 1
    21   11   12 1
    22   11   35 1
    23   11   36 1
    24   12   17 ar
    25   12   13 ar
    26   13   14 ar
    27   13   37 1
    28   14   15 ar
    29   14   38 1
    30   15   16 ar
    31   15   39 1
    32   16   17 ar
    33   16   40 1
    34   17   41 1
    35   18   19 1
    36   18   42 1
    37   18   43 1
    38   19   20 1
    39   19   44 1
    40   19   45 1
    41   20   46 1
    42   20   47 1
    43   21   22 1
    44   22   23 1
    45   22   48 1
    46   22   49 1
    47   23   24 2
    48   23   25 1
    49   26   27 2
    50   26   28 1
    51   28   29 2
    52   28   30 am
    53   30   50 1
    54   30   51 1
@<TRIPOS>MOLECULE
CHEMBL346196
   44    46     0     0     0
SMALL
USER_CHARGES

@<TRIPOS>ATOM
      1 C1          0.0164    1.5160   -0.0026 C.3       1 <0>        -0.1010
      2 C2          0.0180    0.0090   -0.0013 C.2       1 <0>         0.1148
      3 C3         -0.0895   -0.7893   -1.1247 C.2       1 <0>        -0.2112
      4 C4         -0.0409   -2.1833   -0.6432 C.ar      1 <0>        -0.0960
      5 C5          0.0938   -2.1033    0.7508 C.ar      1 <0>         0.1344
      6 N1          0.1300   -0.7660    1.0930 N.pl3     1 <0>        -0.4569
      7 C6          0.2680   -0.2600    2.4609 C.3       1 <0>         0.1489
      8 C7         -1.0982   -0.0892    3.0735 C.ar      1 <0>        -0.1141
      9 C8         -1.7711    1.1108    2.9385 C.ar      1 <0>        -0.1033
     10 C9         -3.0243    1.2675    3.5004 C.ar      1 <0>        -0.1211
     11 C10        -3.6049    0.2241    4.1969 C.ar      1 <0>        -0.1122
     12 C11        -2.9324   -0.9762    4.3311 C.ar      1 <0>        -0.1200
     13 C12        -1.6810   -1.1343    3.7655 C.ar      1 <0>        -0.0949
     14 C13         0.1682   -3.2755    1.4970 C.ar      1 <0>        -0.1815
     15 C14         0.1099   -4.5004    0.8667 C.ar      1 <0>        -0.0515
     16 C15        -0.0232   -4.5818   -0.5102 C.ar      1 <0>        -0.2485
     17 C16        -0.0994   -3.4282   -1.2714 C.ar      1 <0>         0.1877
     18 O1         -0.2302   -3.5073   -2.6215 O.3       1 <0>        -0.2775
     19 C17        -0.2831   -4.8162   -3.1926 C.3       1 <0>        -0.0072
     20 C18        -0.4284   -4.7061   -4.6885 C.2       1 <0>         0.5022
     21 O2         -0.4818   -3.6085   -5.2166 O.co2     1 <0>        -0.6687
     22 O3         -0.4926   -5.7146   -5.3706 O.co2     1 <0>        -0.6884
     23 C19        -0.2249   -0.3427   -2.5101 C.2       1 <0>         0.4443
     24 O4         -1.3244   -0.0885   -2.9621 O.2       1 <0>        -0.4097
     25 C20         0.9859   -0.1988   -3.3689 C.2       1 <0>         0.4976
     26 O5          2.0716   -0.5442   -2.9501 O.2       1 <0>        -0.5075
     27 N2          0.8746    0.3146   -4.6101 N.am      1 <0>        -0.8257
     28 H1          1.0436    1.8804   -0.0153 H         1 <0>         0.0835
     29 H2         -0.5085    1.8781   -0.8866 H         1 <0>         0.0833
     30 H3         -0.4870    1.8796    0.8933 H         1 <0>         0.0756
     31 H4          0.8460   -0.9688    3.0539 H         1 <0>         0.1000
     32 H5          0.7808    0.7016    2.4426 H         1 <0>         0.0993
     33 H6         -1.3175    1.9260    2.3943 H         1 <0>         0.1239
     34 H7         -3.5497    2.2053    3.3956 H         1 <0>         0.1237
     35 H8         -4.5837    0.3468    4.6365 H         1 <0>         0.1224
     36 H9         -3.3859   -1.7913    4.8755 H         1 <0>         0.1240
     37 H10        -1.1572   -2.0733    3.8672 H         1 <0>         0.1240
     38 H11         0.2720   -3.2257    2.5708 H         1 <0>         0.1154
     39 H12         0.1689   -5.4060    1.4523 H         1 <0>         0.1250
     40 H13        -0.0676   -5.5479   -0.9907 H         1 <0>         0.1307
     41 H14         0.6352   -5.3535   -2.9553 H         1 <0>         0.0608
     42 H15        -1.1365   -5.3569   -2.7834 H         1 <0>         0.0604
     43 H16         0.0070    0.5907   -4.9448 H         1 <0>         0.4092
     44 H17         1.6621    0.4082   -5.1687 H         1 <0>         0.4056
@<TRIPOS>BOND
     1    1    2 1
     2    1   28 1
     3    1   29 1
     4    1   30 1
     5    2    6 1
     6    2    3 2
     7    3    4 1
     8    3   23 1
     9    4   17 ar
    10    4    5 ar
    11    5    6 1
    12    5   14 ar
    13    6    7 1
    14    7    8 1
    15    7   31 1
    16    7   32 1
    17    8   13 ar
    18    8    9 ar
    19    9   10 ar
    20    9   33 1
    21   10   11 ar
    22   10   34 1
    23   11   12 ar
    24   11   35 1
    25   12   13 ar
    26   12   36 1
    27   13   37 1
    28   14   15 ar
    29   14   38 1
    30   15   16 ar
    31   15   39 1
    32   16   17 ar
    33   16   40 1
    34   17   18 1
    35   18   19 1
    36   19   20 1
    37   19   41 1
    38   19   42 1
    39   20   21 2
    40   20   22 1
    41   23   24 2
    42   23   25 1
    43   25   26 2
    44   25   27 am
    45   27   43 1
    46   27   44 1
@<TRIPOS>MOLECULE
CHEMBL347957
   58    62     0     0     0
SMALL
USER_CHARGES

@<TRIPOS>ATOM
      1 C1          5.0717    1.1624    4.7420 C.ar      1 <0>        -0.1182
      2 C2          6.2078    0.5210    4.2824 C.ar      1 <0>        -0.1179
      3 C3          6.1923   -0.1271    3.0640 C.ar      1 <0>        -0.1051
      4 C4          5.0294   -0.1345    2.2964 C.ar      1 <0>        -0.0472
      5 C5          3.8879    0.5132    2.7642 C.ar      1 <0>        -0.1102
      6 C6          3.9146    1.1583    3.9841 C.ar      1 <0>        -0.1155
      7 C7          5.0069   -0.8292    0.9854 C.ar      1 <0>        -0.0428
      8 C8          5.9343   -0.4945    0.0005 C.ar      1 <0>        -0.1053
      9 C9          5.9090   -1.1441   -1.2167 C.ar      1 <0>        -0.1160
     10 C10         4.9654   -2.1260   -1.4602 C.ar      1 <0>        -0.1103
     11 C11         4.0424   -2.4619   -0.4866 C.ar      1 <0>        -0.0968
     12 C12         4.0622   -1.8225    0.7367 C.ar      1 <0>        -0.0964
     13 C13         3.0598   -2.1939    1.7989 C.3       1 <0>         0.1515
     14 N1          2.2667   -3.3383    1.3432 N.pl3     1 <0>        -0.4574
     15 C14         1.1227   -3.2444    0.5755 C.ar      1 <0>         0.1329
     16 C15         0.4243   -2.1648    0.0423 C.ar      1 <0>        -0.1780
     17 C16        -0.7152   -2.3797   -0.7029 C.ar      1 <0>        -0.0505
     18 C17        -1.1794   -3.6657   -0.9307 C.ar      1 <0>        -0.2465
     19 C18        -0.5001   -4.7532   -0.4103 C.ar      1 <0>         0.1863
     20 C19         0.6551   -4.5463    0.3459 C.ar      1 <0>        -0.0953
     21 C20         1.6037   -5.4432    1.0337 C.2       1 <0>        -0.2113
     22 C21         2.5567   -4.6247    1.6105 C.2       1 <0>         0.1528
     23 C22         3.7371   -5.1000    2.4180 C.3       1 <0>        -0.1064
     24 C23         4.1119   -6.5799    2.3175 C.3       1 <0>        -0.1763
     25 C24         3.4574   -6.0414    3.5912 C.3       1 <0>        -0.1677
     26 C25         1.5496   -6.9031    1.0893 C.2       1 <0>         0.4458
     27 O1          2.0611   -7.5643    0.2068 O.2       1 <0>        -0.4058
     28 C26         0.8669   -7.5812    2.2288 C.2       1 <0>         0.4955
     29 O2          0.2660   -6.9244    3.0540 O.2       1 <0>        -0.5072
     30 N2          0.9172   -8.9232    2.3423 N.am      1 <0>        -0.8251
     31 O3         -0.9545   -6.0140   -0.6337 O.3       1 <0>        -0.2773
     32 C27        -2.1427   -6.1462   -1.4164 C.3       1 <0>        -0.0073
     33 C28        -2.4916   -7.6055   -1.5573 C.2       1 <0>         0.5017
     34 O4         -1.7881   -8.4537   -1.0356 O.co2     1 <0>        -0.6684
     35 O5         -3.4776   -7.9379   -2.1928 O.co2     1 <0>        -0.6879
     36 H1          5.0869    1.6645    5.6980 H         1 <0>         0.1222
     37 H2          7.1087    0.5276    4.8780 H         1 <0>         0.1234
     38 H3          7.0800   -0.6273    2.7059 H         1 <0>         0.1234
     39 H4          2.9840    0.5109    2.1732 H         1 <0>         0.1238
     40 H5          3.0303    1.6604    4.3478 H         1 <0>         0.1249
     41 H6          6.6711    0.2721    0.1895 H         1 <0>         0.1241
     42 H7          6.6271   -0.8852   -1.9808 H         1 <0>         0.1243
     43 H8          4.9492   -2.6319   -2.4143 H         1 <0>         0.1250
     44 H9          3.3075   -3.2287   -0.6822 H         1 <0>         0.1297
     45 H10         3.5844   -2.4581    2.7171 H         1 <0>         0.1036
     46 H11         2.4002   -1.3470    1.9881 H         1 <0>         0.1039
     47 H12         0.7754   -1.1578    0.2129 H         1 <0>         0.1164
     48 H13        -1.2521   -1.5372   -1.1132 H         1 <0>         0.1258
     49 H14        -2.0741   -3.8195   -1.5158 H         1 <0>         0.1314
     50 H15         4.5488   -4.3814    2.5318 H         1 <0>         0.1193
     51 H16         3.5048   -7.2098    1.6673 H         1 <0>         0.1023
     52 H17         5.1705   -6.8353    2.3649 H         1 <0>         0.1078
     53 H18         4.0853   -5.9425    4.4766 H         1 <0>         0.1049
     54 H19         2.4196   -6.3170    3.7790 H         1 <0>         0.1089
     55 H20         1.3974   -9.4481    1.6829 H         1 <0>         0.4106
     56 H21         0.4731   -9.3642    3.0834 H         1 <0>         0.4064
     57 H22        -2.9622   -5.6225   -0.9243 H         1 <0>         0.0609
     58 H23        -1.9771   -5.7153   -2.4039 H         1 <0>         0.0609
@<TRIPOS>BOND
     1    1    6 ar
     2    1    2 ar
     3    1   36 1
     4    2    3 ar
     5    2   37 1
     6    3    4 ar
     7    3   38 1
     8    4    5 ar
     9    4    7 1
    10    5    6 ar
    11    5   39 1
    12    6   40 1
    13    7   12 ar
    14    7    8 ar
    15    8    9 ar
    16    8   41 1
    17    9   10 ar
    18    9   42 1
    19   10   11 ar
    20   10   43 1
    21   11   12 ar
    22   11   44 1
    23   12   13 1
    24   13   14 1
    25   13   45 1
    26   13   46 1
    27   14   22 1
    28   14   15 1
    29   15   20 ar
    30   15   16 ar
    31   16   17 ar
    32   16   47 1
    33   17   18 ar
    34   17   48 1
    35   18   19 ar
    36   18   49 1
    37   19   20 ar
    38   19   31 1
    39   20   21 1
    40   21   22 2
    41   21   26 1
    42   22   23 1
    43   23   25 1
    44   23   24 1
    45   23   50 1
    46   24   25 1
    47   24   51 1
    48   24   52 1
    49   25   53 1
    50   25   54 1
    51   26   27 2
    52   26   28 1
    53   28   29 2
    54   28   30 am
    55   30   55 1
    56   30   56 1
    57   31   32 1
    58   32   33 1
    59   32   57 1
    60   32   58 1
    61   33   34 2
    62   33   35 1
@<TRIPOS>MOLECULE
CHEMBL82900
   67    69     0     0     0
SMALL
USER_CHARGES

@<TRIPOS>ATOM
      1 C1         -0.0187    1.5258    0.0104 C.3       1 <0>        -0.1545
      2 C2          0.0021   -0.0041    0.0020 C.3       1 <0>        -0.1265
      3 C3         -1.4333   -0.5336    0.0129 C.3       1 <0>        -0.1209
      4 C4         -1.4126   -2.0635    0.0045 C.3       1 <0>        -0.1221
      5 C5         -2.8479   -2.5931    0.0153 C.3       1 <0>        -0.1188
      6 C6         -2.8272   -4.1229    0.0069 C.3       1 <0>        -0.1181
      7 C7         -4.2626   -4.6525    0.0178 C.3       1 <0>        -0.1314
      8 C8         -4.2418   -6.1823    0.0094 C.3       1 <0>         0.1182
      9 N1         -5.6162   -6.6894    0.0198 N.am      1 <0>        -0.7223
     10 C9         -5.8445   -8.0177    0.0148 C.2       1 <0>         0.4945
     11 O1         -4.9121   -8.7932    0.0017 O.2       1 <0>        -0.5132
     12 C10        -7.2583   -8.5393    0.0255 C.3       1 <0>         0.0648
     13 N2         -7.2384  -10.0041    0.0174 N.pl3     1 <0>        -0.4737
     14 C11        -7.2349  -10.6762   -1.1710 C.2       1 <0>         0.1470
     15 C12        -7.2166  -12.0262   -1.1665 C.2       1 <0>        -0.2417
     16 C13        -7.2014  -12.7084    0.0772 C.2       1 <0>         0.5213
     17 O2         -7.1843  -13.9295    0.1084 O.2       1 <0>        -0.5032
     18 N3         -7.2056  -12.0047    1.2173 N.2       1 <0>        -0.5812
     19 C14        -7.2180  -10.6866    1.1942 C.2       1 <0>         0.4015
     20 S1         -7.2158   -9.7937    2.7132 S.3       1 <0>        -0.0103
     21 C15        -7.1861  -11.0885    3.9833 C.3       1 <0>        -0.0518
     22 C16        -7.1818  -10.4521    5.3493 C.ar      1 <0>        -0.0986
     23 C17        -5.9826  -10.1390    5.9616 C.ar      1 <0>        -0.0657
     24 C18        -5.9774   -9.5550    7.2142 C.ar      1 <0>        -0.1532
     25 C19        -7.1740   -9.2836    7.8558 C.ar      1 <0>         0.1124
     26 C20        -8.3745   -9.5977    7.2416 C.ar      1 <0>        -0.1536
     27 C21        -8.3773  -10.1768    5.9868 C.ar      1 <0>        -0.0662
     28 F1         -7.1701   -8.7131    9.0804 F         1 <0>        -0.1352
     29 C22        -7.2127  -12.7960   -2.4620 C.3       1 <0>        -0.0033
     30 C23        -5.7944  -13.1398   -2.8378 C.ar      1 <0>        -0.1862
     31 C24        -5.0378  -12.2783   -3.6164 C.ar      1 <0>         0.1504
     32 N4         -3.7958  -12.6137   -3.9265 N.ar      1 <0>        -0.5197
     33 C25        -3.2780  -13.7499   -3.5047 C.ar      1 <0>         0.2884
     34 N5         -3.9674  -14.5934   -2.7630 N.ar      1 <0>        -0.5176
     35 C26        -5.2133  -14.3226   -2.4085 C.ar      1 <0>         0.1655
     36 H1          1.0039    1.9031    0.0027 H         1 <0>         0.0538
     37 H2         -0.5459    1.8868   -0.8726 H         1 <0>         0.0534
     38 H3         -0.5289    1.8773    0.9072 H         1 <0>         0.0534
     39 H4          0.5123   -0.3556   -0.8948 H         1 <0>         0.0606
     40 H5          0.5293   -0.3651    0.8851 H         1 <0>         0.0606
     41 H6         -1.9435   -0.1821    0.9097 H         1 <0>         0.0608
     42 H7         -1.9605   -0.1726   -0.8702 H         1 <0>         0.0607
     43 H8         -0.9024   -2.4150   -0.8923 H         1 <0>         0.0618
     44 H9         -0.8854   -2.4246    0.8875 H         1 <0>         0.0618
     45 H10        -3.3581   -2.2415    0.9121 H         1 <0>         0.0623
     46 H11        -3.3751   -2.2320   -0.8677 H         1 <0>         0.0621
     47 H12        -2.3170   -4.4744   -0.8899 H         1 <0>         0.0661
     48 H13        -2.3000   -4.4840    0.8900 H         1 <0>         0.0663
     49 H14        -4.7728   -4.3010    0.9146 H         1 <0>         0.0713
     50 H15        -4.7898   -4.2914   -0.8653 H         1 <0>         0.0706
     51 H16        -3.7316   -6.5338   -0.8874 H         1 <0>         0.0708
     52 H17        -3.7146   -6.5434    0.8924 H         1 <0>         0.0718
     53 H18        -6.3620   -6.0692    0.0302 H         1 <0>         0.4040
     54 H19        -7.7685   -8.1878    0.9223 H         1 <0>         0.1332
     55 H20        -7.7855   -8.1782   -0.8576 H         1 <0>         0.1371
     56 H21        -7.2471  -10.1337   -2.1047 H         1 <0>         0.1742
     57 H22        -8.0686  -11.7197    3.8793 H         1 <0>         0.1151
     58 H23        -6.2889  -11.6955    3.8624 H         1 <0>         0.1140
     59 H24        -5.0494  -10.3511    5.4611 H         1 <0>         0.1381
     60 H25        -5.0404   -9.3107    7.6925 H         1 <0>         0.1409
     61 H26        -9.3084   -9.3867    7.7413 H         1 <0>         0.1412
     62 H27        -9.3136  -10.4178    5.5056 H         1 <0>         0.1389
     63 H28        -7.7891  -13.7132   -2.3414 H         1 <0>         0.1001
     64 H29        -7.6594  -12.1869   -3.2479 H         1 <0>         0.0889
     65 H30        -5.4563  -11.3459   -3.9656 H         1 <0>         0.1622
     66 H31        -2.2616  -13.9965   -3.7744 H         1 <0>         0.1959
     67 H32        -5.7711  -15.0158   -1.7964 H         1 <0>         0.1730
@<TRIPOS>BOND
     1    1    2 1
     2    1   36 1
     3    1   37 1
     4    1   38 1
     5    2    3 1
     6    2   39 1
     7    2   40 1
     8    3    4 1
     9    3   41 1
    10    3   42 1
    11    4    5 1
    12    4   43 1
    13    4   44 1
    14    5    6 1
    15    5   45 1
    16    5   46 1
    17    6    7 1
    18    6   47 1
    19    6   48 1
    20    7    8 1
    21    7   49 1
    22    7   50 1
    23    8    9 1
    24    8   51 1
    25    8   52 1
    26    9   10 am
    27    9   53 1
    28   10   11 2
    29   10   12 1
    30   12   13 1
    31   12   54 1
    32   12   55 1
    33   13   19 1
    34   13   14 1
    35   14   15 2
    36   14   56 1
    37   15   16 1
    38   15   29 1
    39   16   17 2
    40   16   18 1
    41   18   19 2
    42   19   20 1
    43   20   21 1
    44   21   22 1
    45   21   57 1
    46   21   58 1
    47   22   27 ar
    48   22   23 ar
    49   23   24 ar
    50   23   59 1
    51   24   25 ar
    52   24   60 1
    53   25   26 ar
    54   25   28 1
    55   26   27 ar
    56   26   61 1
    57   27   62 1
    58   29   30 1
    59   29   63 1
    60   29   64 1
    61   30   35 ar
    62   30   31 ar
    63   31   32 ar
    64   31   65 1
    65   32   33 ar
    66   33   34 ar
    67   33   66 1
    68   34   35 ar
    69   35   67 1
@<TRIPOS>MOLECULE
CHEMBL425696
   56    59     0     0     0
SMALL
USER_CHARGES

@<TRIPOS>ATOM
      1 C1          0.0899    1.4836    0.0121 C.3       1 <0>        -0.1013
      2 C2          0.0468   -0.0227   -0.0004 C.2       1 <0>         0.1063
      3 C3         -0.0725   -0.8103   -1.1306 C.2       1 <0>        -0.2035
      4 C4         -0.0707   -2.2075   -0.6567 C.ar      1 <0>        -0.0820
      5 C5         -0.1621   -3.4509   -1.3101 C.ar      1 <0>         0.1984
      6 C6         -0.1336   -4.6126   -0.5999 C.ar      1 <0>        -0.2622
      7 C7         -0.0121   -4.5818    0.8031 C.ar      1 <0>         0.0172
      8 C8          0.0189   -5.7715    1.5498 C.ar      1 <0>        -0.1154
      9 C9          0.1373   -5.7154    2.9055 C.ar      1 <0>        -0.1115
     10 C10         0.2279   -4.4932    3.5662 C.ar      1 <0>        -0.1407
     11 C11         0.2011   -3.3200    2.8735 C.ar      1 <0>        -0.1097
     12 C12         0.0807   -3.3398    1.4765 C.ar      1 <0>        -0.0624
     13 C13         0.0507   -2.1394    0.7297 C.ar      1 <0>         0.1152
     14 N1          0.1242   -0.8124    1.0855 N.pl3     1 <0>        -0.4325
     15 C14         0.2635   -0.3258    2.4603 C.3       1 <0>         0.0969
     16 C15        -1.1138   -0.2721    3.1244 C.3       1 <0>        -0.1087
     17 C16        -1.9827    0.7672    2.4133 C.3       1 <0>        -0.1185
     18 C17        -3.3600    0.8208    3.0774 C.3       1 <0>        -0.1188
     19 C18        -3.2020    1.2090    4.5488 C.3       1 <0>        -0.1192
     20 C19        -2.3330    0.1697    5.2600 C.3       1 <0>        -0.1179
     21 C20        -0.9557    0.1160    4.5959 C.3       1 <0>        -0.1108
     22 O1         -0.2804   -3.4925   -2.6627 O.3       1 <0>        -0.2775
     23 C21        -0.3689   -4.7845   -3.2667 C.3       1 <0>        -0.0082
     24 C22        -0.4941   -4.6330   -4.7609 C.2       1 <0>         0.5027
     25 O2         -0.5063   -3.5216   -5.2620 O.co2     1 <0>        -0.6680
     26 O3         -0.5830   -5.6218   -5.4686 O.co2     1 <0>        -0.6875
     27 C23        -0.1797   -0.3511   -2.5156 C.2       1 <0>         0.4437
     28 O4         -1.2654   -0.0576   -2.9762 O.2       1 <0>        -0.4079
     29 C24         1.0436   -0.2432   -3.3625 C.2       1 <0>         0.4985
     30 O5          2.1380   -0.4400   -2.8758 O.2       1 <0>        -0.5141
     31 N2          0.9337    0.0727   -4.6681 N.am      1 <0>        -0.8197
     32 H1          1.1272    1.8176   -0.0100 H         1 <0>         0.0829
     33 H2         -0.4347    1.8694   -0.8620 H         1 <0>         0.0836
     34 H3         -0.3916    1.8534    0.9174 H         1 <0>         0.0795
     35 H4         -0.2046   -5.5599   -1.1137 H         1 <0>         0.1358
     36 H5         -0.0511   -6.7267    1.0508 H         1 <0>         0.1258
     37 H6          0.1608   -6.6321    3.4761 H         1 <0>         0.1179
     38 H7          0.3203   -4.4747    4.6421 H         1 <0>         0.1161
     39 H8          0.2718   -2.3787    3.3983 H         1 <0>         0.1230
     40 H9          0.9110   -1.0003    3.0206 H         1 <0>         0.0975
     41 H10         0.7009    0.6725    2.4498 H         1 <0>         0.0959
     42 H11        -1.5886   -1.2509    3.0558 H         1 <0>         0.0845
     43 H12        -1.5079    1.7459    2.4819 H         1 <0>         0.0642
     44 H13        -2.0953    0.4906    1.3650 H         1 <0>         0.0697
     45 H14        -3.9791    1.5612    2.5707 H         1 <0>         0.0630
     46 H15        -3.8348   -0.1580    3.0088 H         1 <0>         0.0624
     47 H16        -2.7272    2.1877    4.6174 H         1 <0>         0.0607
     48 H17        -4.1832    1.2472    5.0219 H         1 <0>         0.0602
     49 H18        -2.2204    0.4462    6.3083 H         1 <0>         0.0626
     50 H19        -2.8078   -0.8091    5.1914 H         1 <0>         0.0631
     51 H20        -0.3367   -0.6244    5.1025 H         1 <0>         0.0649
     52 H21        -0.4809    1.0948    4.6644 H         1 <0>         0.0657
     53 H22         0.5289   -5.3569   -3.0335 H         1 <0>         0.0615
     54 H23        -1.2437   -5.3073   -2.8800 H         1 <0>         0.0615
     55 H24         0.0592    0.2300   -5.0571 H         1 <0>         0.4114
     56 H25         1.7292    0.1428   -5.2188 H         1 <0>         0.4058
@<TRIPOS>BOND
     1    1    2 1
     2    1   32 1
     3    1   33 1
     4    1   34 1
     5    2   14 1
     6    2    3 2
     7    3    4 1
     8    3   27 1
     9    4   13 ar
    10    4    5 ar
    11    5    6 ar
    12    5   22 1
    13    6    7 ar
    14    6   35 1
    15    7   12 ar
    16    7    8 ar
    17    8    9 ar
    18    8   36 1
    19    9   10 ar
    20    9   37 1
    21   10   11 ar
    22   10   38 1
    23   11   12 ar
    24   11   39 1
    25   12   13 ar
    26   13   14 1
    27   14   15 1
    28   15   16 1
    29   15   40 1
    30   15   41 1
    31   16   21 1
    32   16   17 1
    33   16   42 1
    34   17   18 1
    35   17   43 1
    36   17   44 1
    37   18   19 1
    38   18   45 1
    39   18   46 1
    40   19   20 1
    41   19   47 1
    42   19   48 1
    43   20   21 1
    44   20   49 1
    45   20   50 1
    46   21   51 1
    47   21   52 1
    48   22   23 1
    49   23   24 1
    50   23   53 1
    51   23   54 1
    52   24   25 2
    53   24   26 1
    54   27   28 2
    55   27   29 1
    56   29   30 2
    57   29   31 am
    58   31   55 1
    59   31   56 1
@<TRIPOS>MOLECULE
CHEMBL1099342
   89    92     0     0     0
SMALL
USER_CHARGES

@<TRIPOS>ATOM
      1 C1          0.0763    1.3208    1.8396 C.3       1 <0>        -0.1541
      2 C2          0.0939   -0.2013    1.6853 C.3       1 <0>        -0.1262
      3 C3         -1.3411   -0.7320    1.6986 C.3       1 <0>        -0.1213
      4 C4         -1.3234   -2.2541    1.5443 C.3       1 <0>        -0.1212
      5 C5         -2.7584   -2.7847    1.5577 C.3       1 <0>        -0.1207
      6 C6         -2.7407   -4.3068    1.4034 C.3       1 <0>        -0.1206
      7 C7         -4.1757   -4.8374    1.4167 C.3       1 <0>        -0.1206
      8 C8         -4.1581   -6.3595    1.2624 C.3       1 <0>        -0.1206
      9 C9         -5.5930   -6.8902    1.2758 C.3       1 <0>        -0.1207
     10 C10        -5.5754   -8.4123    1.1215 C.3       1 <0>        -0.1205
     11 C11        -7.0104   -8.9429    1.1348 C.3       1 <0>        -0.1190
     12 C12        -6.9927  -10.4650    0.9805 C.3       1 <0>        -0.1170
     13 C13        -8.4277  -10.9956    0.9939 C.3       1 <0>        -0.1189
     14 C14        -8.4101  -12.5177    0.8396 C.3       1 <0>         0.0616
     15 O1         -9.7503  -13.0133    0.8521 O.3       1 <0>        -0.3200
     16 C15        -9.9127  -14.3575    0.7241 C.ar      1 <0>         0.0703
     17 C16        -8.8038  -15.1805    0.5952 C.ar      1 <0>        -0.1570
     18 C17        -8.9678  -16.5457    0.4652 C.ar      1 <0>        -0.1612
     19 C18       -10.2435  -17.0942    0.4636 C.ar      1 <0>         0.1893
     20 C19       -11.3532  -16.2696    0.5926 C.ar      1 <0>        -0.1593
     21 C20       -11.1870  -14.9052    0.7282 C.ar      1 <0>        -0.0999
     22 N1        -10.4106  -18.4773    0.3314 N.pl3     1 <0>        -0.6305
     23 C21       -11.7442  -19.0840    0.4470 C.3       1 <0>         0.1082
     24 C22       -12.0213  -19.9033   -0.8195 C.3       1 <0>         0.0804
     25 N2        -10.8665  -20.7751   -1.0769 N.am      1 <0>        -0.6090
     26 C23        -9.5329  -20.1685   -1.1925 C.3       1 <0>         0.0966
     27 C24        -9.2566  -19.3485    0.0685 C.3       1 <0>         0.1109
     28 C25       -11.0275  -22.1072   -1.2042 C.2       1 <0>         0.5680
     29 O2        -10.0559  -22.8287   -1.3173 O.2       1 <0>        -0.5339
     30 C26       -12.3859  -22.6907   -1.2062 C.ar      1 <0>        -0.1411
     31 C27       -13.4192  -22.0588   -1.8998 C.ar      1 <0>        -0.0939
     32 C28       -14.6844  -22.6089   -1.8981 C.ar      1 <0>        -0.1032
     33 C29       -14.9302  -23.7840   -1.2104 C.ar      1 <0>        -0.0434
     34 C30       -13.9104  -24.4153   -0.5204 C.ar      1 <0>        -0.1096
     35 C31       -12.6393  -23.8791   -0.5193 C.ar      1 <0>        -0.0669
     36 C32       -16.3148  -24.3789   -1.2125 C.3       1 <0>         0.0078
     37 C33       -16.4530  -25.3257   -2.3767 C.2       1 <0>         0.2596
     38 N3        -16.8701  -24.9929   -3.6021 N.2       1 <0>        -0.6503
     39 C34       -16.8741  -26.0515   -4.3770 C.2       1 <0>         0.5102
     40 O3        -17.2379  -26.0812   -5.6774 O.3       1 <0>        -0.6539
     41 O4        -16.4532  -27.0995   -3.6525 O.3       1 <0>        -0.1888
     42 N4        -16.1799  -26.5989   -2.3524 N.2       1 <0>        -0.4198
     43 H1          1.0986    1.6988    1.8301 H         1 <0>         0.0532
     44 H2         -0.4824    1.7631    1.0148 H         1 <0>         0.0533
     45 H3         -0.4000    1.5847    2.7838 H         1 <0>         0.0532
     46 H4          0.5701   -0.4653    0.7410 H         1 <0>         0.0602
     47 H5          0.6526   -0.6437    2.5101 H         1 <0>         0.0602
     48 H6         -1.8173   -0.4680    2.6429 H         1 <0>         0.0605
     49 H7         -1.8997   -0.2896    0.8738 H         1 <0>         0.0605
     50 H8         -0.8472   -2.5180    0.6001 H         1 <0>         0.0605
     51 H9         -0.7648   -2.6964    2.3692 H         1 <0>         0.0604
     52 H10        -3.2346   -2.5207    2.5019 H         1 <0>         0.0604
     53 H11        -3.3170   -2.3423    0.7329 H         1 <0>         0.0604
     54 H12        -2.2645   -4.5708    0.4591 H         1 <0>         0.0604
     55 H13        -2.1821   -4.7492    2.2282 H         1 <0>         0.0603
     56 H14        -4.6519   -4.5735    2.3610 H         1 <0>         0.0603
     57 H15        -4.7344   -4.3951    0.5919 H         1 <0>         0.0605
     58 H16        -3.6818   -6.6235    0.3182 H         1 <0>         0.0604
     59 H17        -3.5994   -6.8019    2.0873 H         1 <0>         0.0603
     60 H18        -6.0693   -6.6262    2.2200 H         1 <0>         0.0608
     61 H19        -6.1517   -6.4478    0.4510 H         1 <0>         0.0609
     62 H20        -5.0992   -8.6762    0.1772 H         1 <0>         0.0612
     63 H21        -5.0168   -8.8546    1.9463 H         1 <0>         0.0611
     64 H22        -7.4866   -8.6789    2.0791 H         1 <0>         0.0630
     65 H23        -7.5690   -8.5005    0.3100 H         1 <0>         0.0632
     66 H24        -6.5165  -10.7290    0.0363 H         1 <0>         0.0647
     67 H25        -6.4341  -10.9074    1.8054 H         1 <0>         0.0644
     68 H26        -8.9039  -10.7317    1.9382 H         1 <0>         0.0727
     69 H27        -8.9863  -10.5533    0.1691 H         1 <0>         0.0730
     70 H28        -7.9338  -12.7817   -0.1047 H         1 <0>         0.0582
     71 H29        -7.8514  -12.9601    1.6644 H         1 <0>         0.0579
     72 H30        -7.8117  -14.7537    0.5961 H         1 <0>         0.1245
     73 H31        -8.1042  -17.1863    0.3645 H         1 <0>         0.1249
     74 H32       -12.3457  -16.6954    0.5915 H         1 <0>         0.1311
     75 H33       -12.0498  -14.2641    0.8334 H         1 <0>         0.1293
     76 H34       -11.7746  -19.7371    1.3192 H         1 <0>         0.0684
     77 H35       -12.4951  -18.3003    0.5474 H         1 <0>         0.0960
     78 H36       -12.9138  -20.5119   -0.6735 H         1 <0>         0.1106
     79 H37       -12.1681  -19.2314   -1.6651 H         1 <0>         0.0756
     80 H38        -8.7820  -20.9521   -1.2928 H         1 <0>         0.1032
     81 H39        -9.5025  -19.5154   -2.0646 H         1 <0>         0.0715
     82 H40        -8.3651  -18.7394   -0.0811 H         1 <0>         0.0927
     83 H41        -9.1058  -20.0208    0.9131 H         1 <0>         0.0668
     84 H42       -13.2288  -21.1411   -2.4364 H         1 <0>         0.1282
     85 H43       -15.4848  -22.1209   -2.4344 H         1 <0>         0.1365
     86 H44       -14.1090  -25.3321    0.0147 H         1 <0>         0.1325
     87 H45       -11.8431  -24.3753    0.0157 H         1 <0>         0.1287
     88 H46       -16.4785  -24.9216   -0.2814 H         1 <0>         0.0933
     89 H47       -17.0526  -23.5817   -1.3029 H         1 <0>         0.1005
@<TRIPOS>BOND
     1    1    2 1
     2    1   43 1
     3    1   44 1
     4    1   45 1
     5    2    3 1
     6    2   46 1
     7    2   47 1
     8    3    4 1
     9    3   48 1
    10    3   49 1
    11    4    5 1
    12    4   50 1
    13    4   51 1
    14    5    6 1
    15    5   52 1
    16    5   53 1
    17    6    7 1
    18    6   54 1
    19    6   55 1
    20    7    8 1
    21    7   56 1
    22    7   57 1
    23    8    9 1
    24    8   58 1
    25    8   59 1
    26    9   10 1
    27    9   60 1
    28    9   61 1
    29   10   11 1
    30   10   62 1
    31   10   63 1
    32   11   12 1
    33   11   64 1
    34   11   65 1
    35   12   13 1
    36   12   66 1
    37   12   67 1
    38   13   14 1
    39   13   68 1
    40   13   69 1
    41   14   15 1
    42   14   70 1
    43   14   71 1
    44   15   16 1
    45   16   21 ar
    46   16   17 ar
    47   17   18 ar
    48   17   72 1
    49   18   19 ar
    50   18   73 1
    51   19   20 ar
    52   19   22 1
    53   20   21 ar
    54   20   74 1
    55   21   75 1
    56   22   27 1
    57   22   23 1
    58   23   24 1
    59   23   76 1
    60   23   77 1
    61   24   25 1
    62   24   78 1
    63   24   79 1
    64   25   26 1
    65   25   28 am
    66   26   27 1
    67   26   80 1
    68   26   81 1
    69   27   82 1
    70   27   83 1
    71   28   29 2
    72   28   30 1
    73   30   35 ar
    74   30   31 ar
    75   31   32 ar
    76   31   84 1
    77   32   33 ar
    78   32   85 1
    79   33   34 ar
    80   33   36 1
    81   34   35 ar
    82   34   86 1
    83   35   87 1
    84   36   37 1
    85   36   88 1
    86   36   89 1
    87   37   42 2
    88   37   38 1
    89   38   39 2
    90   39   40 1
    91   39   41 1
    92   41   42 1
@<TRIPOS>MOLECULE
CHEMBL159260
   83    85     0     0     0
SMALL
USER_CHARGES

@<TRIPOS>ATOM
      1 C1         -0.0187    1.5258    0.0104 C.3       1 <0>        -0.1543
      2 C2          0.0021   -0.0041    0.0020 C.3       1 <0>        -0.1262
      3 C3          0.7182   -0.4975   -1.2568 C.3       1 <0>        -0.1212
      4 C4          0.7390   -2.0273   -1.2652 C.3       1 <0>        -0.1212
      5 C5          1.4551   -2.5207   -2.5240 C.3       1 <0>        -0.1205
      6 C6          1.4758   -4.0506   -2.5324 C.3       1 <0>        -0.1207
      7 C7          2.1920   -4.5440   -3.7912 C.3       1 <0>        -0.1201
      8 C8          2.2127   -6.0738   -3.7996 C.3       1 <0>        -0.1207
      9 C9          2.9289   -6.5673   -5.0584 C.3       1 <0>        -0.1179
     10 C10         2.9496   -8.0971   -5.0668 C.3       1 <0>        -0.1176
     11 C11         3.6658   -8.5905   -6.3257 C.3       1 <0>        -0.1336
     12 C12         3.6865  -10.1203   -6.3341 C.3       1 <0>         0.1142
     13 N1          4.3722  -10.5928   -7.5394 N.am      1 <0>        -0.6089
     14 C13         5.8197  -10.8175   -7.5181 C.3       1 <0>         0.0676
     15 C14         3.6714  -10.8207   -8.6678 C.2       1 <0>         0.4958
     16 O1          2.4731  -10.6347   -8.6854 O.2       1 <0>        -0.5109
     17 C15         4.3768  -11.3068   -9.9077 C.3       1 <0>         0.0654
     18 N2          3.4027  -11.4768  -10.9887 N.pl3     1 <0>        -0.4731
     19 C16         2.7685  -12.6752  -11.1483 C.2       1 <0>         0.1460
     20 C17         1.8727  -12.8207  -12.1479 C.2       1 <0>        -0.2434
     21 C18         1.6164  -11.7202  -13.0055 C.2       1 <0>         0.5233
     22 O2          0.8101  -11.8259  -13.9172 O.2       1 <0>        -0.5114
     23 N3          2.2641  -10.5639  -12.8088 N.2       1 <0>        -0.5833
     24 C19         3.1316  -10.4379  -11.8241 C.2       1 <0>         0.4025
     25 S1          3.9595   -8.9001  -11.5908 S.3       1 <0>        -0.0109
     26 C20         3.2961   -7.8407  -12.9054 C.3       1 <0>        -0.0514
     27 C21         3.9300   -6.4762  -12.8188 C.ar      1 <0>        -0.0988
     28 C22         3.3476   -5.4921  -12.0419 C.ar      1 <0>        -0.0655
     29 C23         3.9282   -4.2406  -11.9614 C.ar      1 <0>        -0.1531
     30 C24         5.0937   -3.9726  -12.6591 C.ar      1 <0>         0.1127
     31 C25         5.6761   -4.9590  -13.4369 C.ar      1 <0>        -0.1536
     32 C26         5.0965   -6.2113  -13.5117 C.ar      1 <0>        -0.0663
     33 F1          5.6619   -2.7494  -12.5815 F         1 <0>        -0.1351
     34 C27         1.1569  -14.1314  -12.3496 C.3       1 <0>         0.0117
     35 C28        -0.1768  -14.0884  -11.6494 C.2       1 <0>        -0.2615
     36 C29        -1.3026  -13.7438  -12.3308 C.2       1 <0>         0.2057
     37 N4         -2.4915  -13.7133  -11.6740 N.am      1 <0>        -0.6226
     38 C30        -2.5483  -14.0214  -10.3647 C.2       1 <0>         0.6258
     39 N5         -1.4466  -14.3600   -9.6905 N.2       1 <0>        -0.5439
     40 C31        -0.2752  -14.4077  -10.2918 C.2       1 <0>         0.2608
     41 O3         -3.6213  -13.9905   -9.7860 O.2       1 <0>        -0.5316
     42 H1          1.0039    1.9031    0.0027 H         1 <0>         0.0533
     43 H2         -0.5459    1.8868   -0.8726 H         1 <0>         0.0533
     44 H3         -0.5289    1.8773    0.9072 H         1 <0>         0.0535
     45 H4          0.5293   -0.3651    0.8851 H         1 <0>         0.0602
     46 H5         -1.0205   -0.3814    0.0098 H         1 <0>         0.0603
     47 H6          0.1910   -0.1364   -2.1398 H         1 <0>         0.0605
     48 H7          1.7408   -0.1202   -1.2645 H         1 <0>         0.0604
     49 H8          1.2661   -2.3884   -0.3821 H         1 <0>         0.0605
     50 H9         -0.2836   -2.4046   -1.2575 H         1 <0>         0.0606
     51 H10         0.9279   -2.1597   -3.4071 H         1 <0>         0.0604
     52 H11         2.4777   -2.1435   -2.5317 H         1 <0>         0.0603
     53 H12         2.0030   -4.4117   -1.6494 H         1 <0>         0.0604
     54 H13         0.4533   -4.4279   -2.5247 H         1 <0>         0.0607
     55 H14         1.6648   -4.1829   -4.6743 H         1 <0>         0.0603
     56 H15         3.2146   -4.1667   -3.7990 H         1 <0>         0.0602
     57 H16         2.7399   -6.4349   -2.9166 H         1 <0>         0.0609
     58 H17         1.1901   -6.4511   -3.7919 H         1 <0>         0.0613
     59 H18         2.4017   -6.2062   -5.9415 H         1 <0>         0.0610
     60 H19         3.9515   -6.1900   -5.0662 H         1 <0>         0.0606
     61 H20         3.4768   -8.4582   -4.1838 H         1 <0>         0.0632
     62 H21         1.9270   -8.4744   -5.0591 H         1 <0>         0.0645
     63 H22         3.1386   -8.2294   -7.2087 H         1 <0>         0.0675
     64 H23         4.6884   -8.2132   -6.3334 H         1 <0>         0.0639
     65 H24         4.2137  -10.4814   -5.4510 H         1 <0>         0.0817
     66 H25         2.6639  -10.4976   -6.3263 H         1 <0>         0.0866
     67 H26         6.0234  -11.8459   -7.2199 H         1 <0>         0.0656
     68 H27         6.2297  -10.6395   -8.5123 H         1 <0>         0.0726
     69 H28         6.2831  -10.1342   -6.8064 H         1 <0>         0.0817
     70 H29         5.1287  -10.5769  -10.2076 H         1 <0>         0.1318
     71 H30         4.8597  -12.2616   -9.7002 H         1 <0>         0.1363
     72 H31         2.9813  -13.4983  -10.4821 H         1 <0>         0.1752
     73 H32         3.5186   -8.2837  -13.8761 H         1 <0>         0.1149
     74 H33         2.2165   -7.7479  -12.7872 H         1 <0>         0.1135
     75 H34         2.4383   -5.7013  -11.4980 H         1 <0>         0.1378
     76 H35         3.4728   -3.4719  -11.3547 H         1 <0>         0.1407
     77 H36         6.5850   -4.7509  -13.9818 H         1 <0>         0.1411
     78 H37         5.5530   -6.9823  -14.1147 H         1 <0>         0.1388
     79 H38         1.0025  -14.3008  -13.4153 H         1 <0>         0.0970
     80 H39         1.7583  -14.9412  -11.9364 H         1 <0>         0.0906
     81 H40        -1.2518  -13.4971  -13.3810 H         1 <0>         0.1817
     82 H41         0.6075  -14.6878   -9.7362 H         1 <0>         0.1694
     83 H42        -3.3010  -13.4687  -12.1492 H         1 <0>         0.4228
@<TRIPOS>BOND
     1    1    2 1
     2    1   42 1
     3    1   43 1
     4    1   44 1
     5    2    3 1
     6    2   45 1
     7    2   46 1
     8    3    4 1
     9    3   47 1
    10    3   48 1
    11    4    5 1
    12    4   49 1
    13    4   50 1
    14    5    6 1
    15    5   51 1
    16    5   52 1
    17    6    7 1
    18    6   53 1
    19    6   54 1
    20    7    8 1
    21    7   55 1
    22    7   56 1
    23    8    9 1
    24    8   57 1
    25    8   58 1
    26    9   10 1
    27    9   59 1
    28    9   60 1
    29   10   11 1
    30   10   61 1
    31   10   62 1
    32   11   12 1
    33   11   63 1
    34   11   64 1
    35   12   13 1
    36   12   65 1
    37   12   66 1
    38   13   14 1
    39   13   15 am
    40   14   67 1
    41   14   68 1
    42   14   69 1
    43   15   16 2
    44   15   17 1
    45   17   18 1
    46   17   70 1
    47   17   71 1
    48   18   24 1
    49   18   19 1
    50   19   20 2
    51   19   72 1
    52   20   21 1
    53   20   34 1
    54   21   22 2
    55   21   23 1
    56   23   24 2
    57   24   25 1
    58   25   26 1
    59   26   27 1
    60   26   73 1
    61   26   74 1
    62   27   32 ar
    63   27   28 ar
    64   28   29 ar
    65   28   75 1
    66   29   30 ar
    67   29   76 1
    68   30   31 ar
    69   30   33 1
    70   31   32 ar
    71   31   77 1
    72   32   78 1
    73   34   79 1
    74   34   80 1
    75   34   35 1
    76   35   36 2
    77   35   40 1
    78   36   37 1
    79   36   81 1
    80   37   38 am
    81   37   83 1
    82   38   41 2
    83   38   39 1
    84   39   40 2
    85   40   82 1
@<TRIPOS>MOLECULE
CHEMBL87375
   70    72     0     0     0
SMALL
USER_CHARGES

@<TRIPOS>ATOM
      1 C1         -0.0187    1.5258    0.0104 C.3       1 <0>        -0.1544
      2 C2          0.0021   -0.0041    0.0020 C.3       1 <0>        -0.1261
      3 C3         -1.4333   -0.5336    0.0129 C.3       1 <0>        -0.1210
      4 C4         -1.4126   -2.0635    0.0045 C.3       1 <0>        -0.1211
      5 C5         -2.8479   -2.5931    0.0153 C.3       1 <0>        -0.1182
      6 C6         -2.8272   -4.1229    0.0069 C.3       1 <0>        -0.1172
      7 C7         -4.2626   -4.6525    0.0178 C.3       1 <0>        -0.1339
      8 C8         -4.2418   -6.1823    0.0094 C.3       1 <0>         0.1145
      9 N1         -5.6162   -6.6894    0.0198 N.am      1 <0>        -0.6092
     10 C9         -6.3155   -6.9361   -1.2437 C.3       1 <0>         0.0676
     11 C10        -6.2373   -6.9289    1.1917 C.2       1 <0>         0.4962
     12 O1         -5.6584   -6.7247    2.2376 O.2       1 <0>        -0.5115
     13 C11        -7.6511   -7.4505    1.2024 C.3       1 <0>         0.0659
     14 N2         -8.0961   -7.6270    2.5870 N.pl3     1 <0>        -0.4740
     15 C12        -7.8872   -8.8183    3.2202 C.2       1 <0>         0.1471
     16 C13        -8.3014   -8.9698    4.4963 C.2       1 <0>        -0.2417
     17 C14        -8.9435   -7.8828    5.1432 C.2       1 <0>         0.5214
     18 O2         -9.3273   -7.9941    6.2976 O.2       1 <0>        -0.5033
     19 N3         -9.1259   -6.7330    4.4799 N.2       1 <0>        -0.5811
     20 C15        -8.7100   -6.6009    3.2359 C.2       1 <0>         0.4018
     21 S1         -8.9603   -5.0718    2.3968 S.3       1 <0>        -0.0113
     22 C16        -9.7935   -4.0287    3.6249 C.3       1 <0>        -0.0516
     23 C17       -10.0696   -2.6728    3.0278 C.ar      1 <0>        -0.0984
     24 C18        -9.1306   -1.6644    3.1404 C.ar      1 <0>        -0.0655
     25 C19        -9.3824   -0.4208    2.5929 C.ar      1 <0>        -0.1530
     26 C20       -10.5757   -0.1849    1.9314 C.ar      1 <0>         0.1124
     27 C21       -11.5154   -1.1956    1.8193 C.ar      1 <0>        -0.1535
     28 C22       -11.2591   -2.4400    2.3631 C.ar      1 <0>        -0.0663
     29 F1        -10.8232    1.0306    1.3962 F         1 <0>        -0.1352
     30 C23        -8.0854  -10.2730    5.2216 C.3       1 <0>        -0.0032
     31 C24        -6.8138  -10.1952    6.0265 C.ar      1 <0>        -0.1862
     32 C25        -5.5995  -10.5694    5.4729 C.ar      1 <0>         0.1504
     33 N4         -4.5035  -10.4877    6.2101 N.ar      1 <0>        -0.5196
     34 C26        -4.5574  -10.0573    7.4546 C.ar      1 <0>         0.2884
     35 N5         -5.6938   -9.6930    8.0140 N.ar      1 <0>        -0.5175
     36 C27        -6.8294   -9.7423    7.3363 C.ar      1 <0>         0.1655
     37 H1          1.0039    1.9031    0.0027 H         1 <0>         0.0537
     38 H2         -0.5459    1.8868   -0.8726 H         1 <0>         0.0533
     39 H3         -0.5289    1.8773    0.9072 H         1 <0>         0.0534
     40 H4          0.5123   -0.3556   -0.8948 H         1 <0>         0.0603
     41 H5          0.5293   -0.3651    0.8851 H         1 <0>         0.0605
     42 H6         -1.9435   -0.1821    0.9097 H         1 <0>         0.0607
     43 H7         -1.9605   -0.1726   -0.8702 H         1 <0>         0.0605
     44 H8         -0.9024   -2.4150   -0.8923 H         1 <0>         0.0610
     45 H9         -0.8854   -2.4246    0.8875 H         1 <0>         0.0613
     46 H10        -3.3581   -2.2415    0.9121 H         1 <0>         0.0612
     47 H11        -3.3751   -2.2320   -0.8677 H         1 <0>         0.0609
     48 H12        -2.3170   -4.4744   -0.8899 H         1 <0>         0.0632
     49 H13        -2.3000   -4.4840    0.8900 H         1 <0>         0.0642
     50 H14        -4.7728   -4.3010    0.9146 H         1 <0>         0.0677
     51 H15        -4.7898   -4.2914   -0.8653 H         1 <0>         0.0642
     52 H16        -3.7316   -6.5338   -0.8874 H         1 <0>         0.0817
     53 H17        -3.7146   -6.5434    0.8924 H         1 <0>         0.0858
     54 H18        -6.1333   -7.9614   -1.5656 H         1 <0>         0.0654
     55 H19        -7.3856   -6.7844   -1.1023 H         1 <0>         0.0728
     56 H20        -5.9480   -6.2461   -2.0032 H         1 <0>         0.0820
     57 H21        -8.3049   -6.7386    0.6986 H         1 <0>         0.1322
     58 H22        -7.6889   -8.4085    0.6837 H         1 <0>         0.1356
     59 H23        -7.3961   -9.6311    2.7058 H         1 <0>         0.1737
     60 H24       -10.7341   -4.4945    3.9191 H         1 <0>         0.1151
     61 H25        -9.1540   -3.9168    4.5004 H         1 <0>         0.1139
     62 H26        -8.2000   -1.8485    3.6567 H         1 <0>         0.1379
     63 H27        -8.6489    0.3670    2.6813 H         1 <0>         0.1407
     64 H28       -12.4467   -1.0127    1.3039 H         1 <0>         0.1411
     65 H29       -11.9900   -3.2299    2.2719 H         1 <0>         0.1388
     66 H30        -8.9267  -10.4612    5.8887 H         1 <0>         0.1001
     67 H31        -8.0078  -11.0836    4.4971 H         1 <0>         0.0889
     68 H32        -5.5485  -10.9233    4.4538 H         1 <0>         0.1621
     69 H33        -3.6461  -10.0019    8.0315 H         1 <0>         0.1958
     70 H34        -7.7565   -9.4377    7.7990 H         1 <0>         0.1730
@<TRIPOS>BOND
     1    1    2 1
     2    1   37 1
     3    1   38 1
     4    1   39 1
     5    2    3 1
     6    2   40 1
     7    2   41 1
     8    3    4 1
     9    3   42 1
    10    3   43 1
    11    4    5 1
    12    4   44 1
    13    4   45 1
    14    5    6 1
    15    5   46 1
    16    5   47 1
    17    6    7 1
    18    6   48 1
    19    6   49 1
    20    7    8 1
    21    7   50 1
    22    7   51 1
    23    8    9 1
    24    8   52 1
    25    8   53 1
    26    9   10 1
    27    9   11 am
    28   10   54 1
    29   10   55 1
    30   10   56 1
    31   11   12 2
    32   11   13 1
    33   13   14 1
    34   13   57 1
    35   13   58 1
    36   14   20 1
    37   14   15 1
    38   15   16 2
    39   15   59 1
    40   16   17 1
    41   16   30 1
    42   17   18 2
    43   17   19 1
    44   19   20 2
    45   20   21 1
    46   21   22 1
    47   22   23 1
    48   22   60 1
    49   22   61 1
    50   23   28 ar
    51   23   24 ar
    52   24   25 ar
    53   24   62 1
    54   25   26 ar
    55   25   63 1
    56   26   27 ar
    57   26   29 1
    58   27   28 ar
    59   27   64 1
    60   28   65 1
    61   30   31 1
    62   30   66 1
    63   30   67 1
    64   31   36 ar
    65   31   32 ar
    66   32   33 ar
    67   32   68 1
    68   33   34 ar
    69   34   35 ar
    70   34   69 1
    71   35   36 ar
    72   36   70 1
@<TRIPOS>MOLECULE
CHEMBL179966
   51    54     0     0     0
SMALL
USER_CHARGES

@<TRIPOS>ATOM
      1 C1          0.1275    1.5617    0.1295 C.3       1 <0>        -0.1001
      2 C2          0.1138    0.0557    0.0788 C.2       1 <0>         0.1123
      3 C3          0.0588   -0.7029   -1.0756 C.2       1 <0>        -0.2072
      4 C4          0.0672   -2.1126   -0.6397 C.ar      1 <0>        -0.0936
      5 C5          0.0292   -3.3359   -1.3110 C.ar      1 <0>         0.1908
      6 C6          0.0515   -4.5118   -0.5850 C.ar      1 <0>        -0.2339
      7 C7          0.1111   -4.4829    0.8033 C.ar      1 <0>        -0.0294
      8 C8          0.1487   -3.2792    1.4747 C.ar      1 <0>        -0.1666
      9 C9          0.1274   -2.0819    0.7598 C.ar      1 <0>         0.1524
     10 N1          0.1592   -0.7575    1.1500 N.pl3     1 <0>        -0.4568
     11 C10         0.2298   -0.3004    2.5401 C.3       1 <0>         0.1446
     12 C11         1.6643   -0.0138    2.9024 C.ar      1 <0>        -0.0830
     13 C12         2.4215   -0.9781    3.5416 C.ar      1 <0>        -0.1119
     14 C13         3.7373   -0.7166    3.8745 C.ar      1 <0>        -0.0894
     15 C14         4.2975    0.5095    3.5692 C.ar      1 <0>        -0.1459
     16 C15         3.5403    1.4758    2.9292 C.ar      1 <0>         0.0987
     17 C16         2.2239    1.2105    2.5907 C.ar      1 <0>        -0.1381
     18 F1          4.0866    2.6747    2.6307 F         1 <0>        -0.1383
     19 C17         0.2101   -3.5250    2.9674 C.3       1 <0>        -0.0691
     20 C18        -0.2342   -4.9913    3.1534 C.3       1 <0>        -0.1173
     21 C19         0.1451   -5.6247    1.7982 C.3       1 <0>        -0.0792
     22 O1         -0.0296   -3.3704   -2.6680 O.3       1 <0>        -0.2754
     23 C20        -0.0657   -4.6597   -3.2832 C.3       1 <0>        -0.0071
     24 C21        -0.1292   -4.5003   -4.7804 C.2       1 <0>         0.5021
     25 O2         -0.1423   -3.3858   -5.2748 O.co2     1 <0>        -0.6683
     26 O3         -0.1674   -5.4857   -5.4973 O.co2     1 <0>        -0.6881
     27 C22         0.0029   -0.2084   -2.4503 C.2       1 <0>         0.4447
     28 O4         -1.0664    0.0880   -2.9466 O.2       1 <0>        -0.4098
     29 C23         1.2579   -0.0677   -3.2437 C.2       1 <0>         0.4972
     30 O5          2.3138   -0.4493   -2.7821 O.2       1 <0>        -0.5063
     31 N2          1.2197    0.4830   -4.4732 N.am      1 <0>        -0.8255
     32 H1          1.1578    1.9144    0.1766 H         1 <0>         0.0826
     33 H2         -0.3522    1.9597   -0.7648 H         1 <0>         0.0850
     34 H3         -0.4133    1.9005    1.0132 H         1 <0>         0.0758
     35 H4          0.0219   -5.4604   -1.1004 H         1 <0>         0.1296
     36 H5         -0.3622    0.6076    2.6545 H         1 <0>         0.1005
     37 H6         -0.1631   -1.0756    3.1979 H         1 <0>         0.1075
     38 H7          1.9844   -1.9362    3.7812 H         1 <0>         0.1349
     39 H8          4.3278   -1.4706    4.3738 H         1 <0>         0.1355
     40 H9          5.3254    0.7138    3.8301 H         1 <0>         0.1363
     41 H10         1.6336    1.9619    2.0874 H         1 <0>         0.1377
     42 H11         1.2284   -3.3893    3.3316 H         1 <0>         0.0714
     43 H12        -0.4719   -2.8540    3.4896 H         1 <0>         0.0634
     44 H13         0.3148   -5.4623    3.9687 H         1 <0>         0.0739
     45 H14        -1.3093   -5.0522    3.3223 H         1 <0>         0.0718
     46 H15        -0.5809   -6.3892    1.5216 H         1 <0>         0.0756
     47 H16         1.1462   -6.0532    1.8481 H         1 <0>         0.0802
     48 H17         0.8326   -5.2156   -3.0148 H         1 <0>         0.0605
     49 H18        -0.9456   -5.2025   -2.9380 H         1 <0>         0.0604
     50 H19         0.3760    0.7879   -4.8421 H         1 <0>         0.4091
     51 H20         2.0359    0.5745   -4.9892 H         1 <0>         0.4057
@<TRIPOS>BOND
     1    1    2 1
     2    1   32 1
     3    1   33 1
     4    1   34 1
     5    2   10 1
     6    2    3 2
     7    3    4 1
     8    3   27 1
     9    4    9 ar
    10    4    5 ar
    11    5    6 ar
    12    5   22 1
    13    6    7 ar
    14    6   35 1
    15    7   21 1
    16    7    8 ar
    17    8    9 ar
    18    8   19 1
    19    9   10 1
    20   10   11 1
    21   11   12 1
    22   11   36 1
    23   11   37 1
    24   12   17 ar
    25   12   13 ar
    26   13   14 ar
    27   13   38 1
    28   14   15 ar
    29   14   39 1
    30   15   16 ar
    31   15   40 1
    32   16   17 ar
    33   16   18 1
    34   17   41 1
    35   19   20 1
    36   19   42 1
    37   19   43 1
    38   20   21 1
    39   20   44 1
    40   20   45 1
    41   21   46 1
    42   21   47 1
    43   22   23 1
    44   23   24 1
    45   23   48 1
    46   23   49 1
    47   24   25 2
    48   24   26 1
    49   27   28 2
    50   27   29 1
    51   29   30 2
    52   29   31 am
    53   31   50 1
    54   31   51 1
@<TRIPOS>MOLECULE
CHEMBL148795
   44    46     0     0     0
SMALL
USER_CHARGES

@<TRIPOS>ATOM
      1 C1         -0.3996    1.7678    0.3005 C.3       1 <0>        -0.1044
      2 C2         -0.1781    0.2934    0.0806 C.2       1 <0>         0.1136
      3 C3         -0.2329   -0.3472   -1.1431 C.2       1 <0>        -0.2096
      4 C4          0.0464   -1.7708   -0.8734 C.ar      1 <0>        -0.0946
      5 C5          0.2485   -1.8666    0.5113 C.ar      1 <0>         0.1366
      6 N1          0.1090   -0.6004    1.0445 N.pl3     1 <0>        -0.4562
      7 C6          0.2506   -0.2754    2.4659 C.3       1 <0>         0.1458
      8 C7         -1.1112   -0.2345    3.1100 C.ar      1 <0>        -0.1067
      9 C8         -1.8052    0.9586    3.1845 C.ar      1 <0>        -0.0941
     10 C9         -3.0543    0.9963    3.7752 C.ar      1 <0>        -0.1159
     11 C10        -3.6103   -0.1593    4.2919 C.ar      1 <0>        -0.0992
     12 C11        -2.9174   -1.3528    4.2181 C.ar      1 <0>        -0.1116
     13 C12        -1.6694   -1.3921    3.6218 C.ar      1 <0>        -0.0187
     14 Cl1        -0.8013   -2.8922    3.5228 Cl        1 <0>        -0.0488
     15 C13         0.5361   -3.1062    1.0743 C.ar      1 <0>        -0.1798
     16 C14         0.6208   -4.2256    0.2737 C.ar      1 <0>        -0.0552
     17 C15         0.4215   -4.1332   -1.0945 C.ar      1 <0>        -0.2457
     18 C16         0.1339   -2.9100   -1.6750 C.ar      1 <0>         0.1852
     19 O1         -0.0619   -2.8189   -3.0164 O.3       1 <0>        -0.2778
     20 C17         0.0438   -4.0278   -3.7711 C.3       1 <0>        -0.0069
     21 C18        -0.2025   -3.7334   -5.2284 C.2       1 <0>         0.5023
     22 O2         -0.4459   -2.5939   -5.5875 O.co2     1 <0>        -0.6689
     23 O3         -0.1582   -4.6346   -6.0483 O.co2     1 <0>        -0.6887
     24 C19        -0.5120    0.2625   -2.4422 C.2       1 <0>         0.4449
     25 O4         -1.6613    0.4198   -2.8054 O.2       1 <0>        -0.4105
     26 C20         0.6134    0.6916   -3.3218 C.2       1 <0>         0.4976
     27 O5          1.7595    0.4521   -3.0014 O.2       1 <0>        -0.5070
     28 N2          0.3580    1.3453   -4.4724 N.am      1 <0>        -0.8256
     29 H1          0.5617    2.2814    0.3149 H         1 <0>         0.0836
     30 H2         -1.0131    2.1674   -0.5069 H         1 <0>         0.0835
     31 H3         -0.9076    1.9208    1.2527 H         1 <0>         0.0775
     32 H4          0.8605   -1.0359    2.9536 H         1 <0>         0.1058
     33 H5          0.7311    0.6975    2.5701 H         1 <0>         0.1024
     34 H6         -1.3713    1.8617    2.7813 H         1 <0>         0.1369
     35 H7         -3.5960    1.9288    3.8334 H         1 <0>         0.1318
     36 H8         -4.5862   -0.1293    4.7537 H         1 <0>         0.1333
     37 H9         -3.3517   -2.2553    4.6221 H         1 <0>         0.1354
     38 H10         0.6936   -3.1916    2.1393 H         1 <0>         0.1216
     39 H11         0.8451   -5.1843    0.7175 H         1 <0>         0.1229
     40 H12         0.4908   -5.0182   -1.7097 H         1 <0>         0.1302
     41 H13         1.0427   -4.4463   -3.6487 H         1 <0>         0.0605
     42 H14        -0.6965   -4.7443   -3.4150 H         1 <0>         0.0600
     43 H15        -0.5578    1.5367   -4.7284 H         1 <0>         0.4090
     44 H16         1.0899    1.6243   -5.0445 H         1 <0>         0.4056
@<TRIPOS>BOND
     1    1    2 1
     2    1   29 1
     3    1   30 1
     4    1   31 1
     5    2    6 1
     6    2    3 2
     7    3    4 1
     8    3   24 1
     9    4   18 ar
    10    4    5 ar
    11    5    6 1
    12    5   15 ar
    13    6    7 1
    14    7    8 1
    15    7   32 1
    16    7   33 1
    17    8   13 ar
    18    8    9 ar
    19    9   10 ar
    20    9   34 1
    21   10   11 ar
    22   10   35 1
    23   11   12 ar
    24   11   36 1
    25   12   13 ar
    26   12   37 1
    27   13   14 1
    28   15   16 ar
    29   15   38 1
    30   16   17 ar
    31   16   39 1
    32   17   18 ar
    33   17   40 1
    34   18   19 1
    35   19   20 1
    36   20   21 1
    37   20   41 1
    38   20   42 1
    39   21   22 2
    40   21   23 1
    41   24   25 2
    42   24   26 1
    43   26   27 2
    44   26   28 am
    45   28   43 1
    46   28   44 1
@<TRIPOS>MOLECULE
CHEMBL357804
   50    53     0     0     0
SMALL
USER_CHARGES

@<TRIPOS>ATOM
      1 C1         -0.1100    1.4804    0.0018 C.3       1 <0>        -0.0982
      2 C2         -0.0701   -0.0261   -0.0102 C.2       1 <0>         0.1133
      3 C3         -0.1732   -0.8174   -1.1389 C.2       1 <0>        -0.2092
      4 C4         -0.0823   -2.2137   -0.6704 C.ar      1 <0>        -0.0955
      5 C5          0.0701   -2.1421    0.7221 C.ar      1 <0>         0.1333
      6 N1          0.0771   -0.8071    1.0755 N.pl3     1 <0>        -0.4614
      7 C6          0.2215   -0.3094    2.4458 C.3       1 <0>         0.1519
      8 C7         -1.1279   -0.2848    3.1161 C.ar      1 <0>        -0.1036
      9 C8         -2.2504   -0.5822    2.4057 C.ar      1 <0>        -0.0916
     10 C9         -3.5065   -0.5646    3.0083 C.ar      1 <0>        -0.1079
     11 C10        -3.6479   -0.2491    4.3249 C.ar      1 <0>        -0.1055
     12 C11        -2.5121    0.0636    5.0906 C.ar      1 <0>        -0.0516
     13 C12        -1.2336    0.0396    4.4791 C.ar      1 <0>        -0.0379
     14 C13        -0.0969    0.3467    5.2467 C.ar      1 <0>        -0.1125
     15 C14        -0.2378    0.6563    6.5643 C.ar      1 <0>        -0.1128
     16 C15        -1.4944    0.6735    7.1672 C.ar      1 <0>        -0.1206
     17 C16        -2.6185    0.3947    6.4524 C.ar      1 <0>        -0.1021
     18 C17         0.1847   -3.3182    1.4569 C.ar      1 <0>        -0.1780
     19 C18         0.1486   -4.5389    0.8168 C.ar      1 <0>        -0.0511
     20 C19        -0.0018   -4.6120   -0.5588 C.ar      1 <0>        -0.2465
     21 C20        -0.1181   -3.4544   -1.3087 C.ar      1 <0>         0.1869
     22 O1         -0.2660   -3.5254   -2.6575 O.3       1 <0>        -0.2772
     23 C21        -0.2936   -4.8303   -3.2393 C.3       1 <0>        -0.0071
     24 C22        -0.4629   -4.7113   -4.7320 C.2       1 <0>         0.5020
     25 O2         -0.5516   -3.6110   -5.2497 O.co2     1 <0>        -0.6685
     26 O3         -0.5111   -5.7154   -5.4220 O.co2     1 <0>        -0.6882
     27 C23        -0.3395   -0.3627   -2.5184 C.2       1 <0>         0.4445
     28 O4         -1.4505   -0.1222   -2.9493 O.2       1 <0>        -0.4097
     29 C24         0.8538   -0.1938   -3.3969 C.2       1 <0>         0.4976
     30 O5          1.9524   -0.5219   -2.9981 O.2       1 <0>        -0.5073
     31 N2          0.7124    0.3229   -4.6336 N.am      1 <0>        -0.8254
     32 H1          0.9073    1.8710   -0.0225 H         1 <0>         0.0834
     33 H2         -0.6568    1.8363   -0.8714 H         1 <0>         0.0837
     34 H3         -0.6094    1.8234    0.9079 H         1 <0>         0.0757
     35 H4          0.8915   -0.9652    3.0018 H         1 <0>         0.1035
     36 H5          0.6350    0.6989    2.4244 H         1 <0>         0.1057
     37 H6         -2.1659   -0.8352    1.3591 H         1 <0>         0.1289
     38 H7         -4.3812   -0.8046    2.4219 H         1 <0>         0.1259
     39 H8         -4.6280   -0.2388    4.7784 H         1 <0>         0.1273
     40 H9          0.8832    0.3367    4.7932 H         1 <0>         0.1262
     41 H10         0.6372    0.8919    7.1518 H         1 <0>         0.1227
     42 H11        -1.5783    0.9223    8.2148 H         1 <0>         0.1220
     43 H12        -3.5856    0.4127    6.9327 H         1 <0>         0.1263
     44 H13         0.3024   -3.2749    2.5296 H         1 <0>         0.1162
     45 H14         0.2389   -5.4476    1.3935 H         1 <0>         0.1252
     46 H15        -0.0284   -5.5749   -1.0471 H         1 <0>         0.1310
     47 H16         0.6412   -5.3460   -3.0196 H         1 <0>         0.0608
     48 H17        -1.1271   -5.3961   -2.8230 H         1 <0>         0.0605
     49 H18        -0.1655    0.5851   -4.9523 H         1 <0>         0.4092
     50 H19         1.4885    0.4327   -5.2050 H         1 <0>         0.4058
@<TRIPOS>BOND
     1    1    2 1
     2    1   32 1
     3    1   33 1
     4    1   34 1
     5    2    6 1
     6    2    3 2
     7    3    4 1
     8    3   27 1
     9    4   21 ar
    10    4    5 ar
    11    5    6 1
    12    5   18 ar
    13    6    7 1
    14    7    8 1
    15    7   35 1
    16    7   36 1
    17    8   13 ar
    18    8    9 ar
    19    9   10 ar
    20    9   37 1
    21   10   11 ar
    22   10   38 1
    23   11   12 ar
    24   11   39 1
    25   12   17 ar
    26   12   13 ar
    27   13   14 ar
    28   14   15 ar
    29   14   40 1
    30   15   16 ar
    31   15   41 1
    32   16   17 ar
    33   16   42 1
    34   17   43 1
    35   18   19 ar
    36   18   44 1
    37   19   20 ar
    38   19   45 1
    39   20   21 ar
    40   20   46 1
    41   21   22 1
    42   22   23 1
    43   23   24 1
    44   23   47 1
    45   23   48 1
    46   24   25 2
    47   24   26 1
    48   27   28 2
    49   27   29 1
    50   29   30 2
    51   29   31 am
    52   31   49 1
    53   31   50 1
@<TRIPOS>MOLECULE
CHEMBL356306
   57    60     0     0     0
SMALL
USER_CHARGES

@<TRIPOS>ATOM
      1 C1          0.4123    1.6449   -0.4128 C.ar      1 <0>        -0.1123
      2 C2          1.6665    2.2259   -0.3952 C.ar      1 <0>        -0.1194
      3 C3          2.7943    1.4328   -0.2953 C.ar      1 <0>        -0.0980
      4 C4          2.6678    0.0588   -0.2127 C.ar      1 <0>        -0.1108
      5 C5          1.4136   -0.5222   -0.2294 C.ar      1 <0>        -0.0983
      6 C6          0.2859    0.2708   -0.3307 C.ar      1 <0>        -0.1219
      7 C7          3.8974   -0.8059   -0.1048 C.3       1 <0>         0.1520
      8 N1          4.2371   -0.9979    1.3072 N.pl3     1 <0>        -0.4693
      9 C8          5.0669   -0.1768    2.0414 C.ar      1 <0>         0.0703
     10 C9          5.7820    0.9767    1.7367 C.ar      1 <0>        -0.0889
     11 C10         6.5436    1.5905    2.7057 C.ar      1 <0>        -0.1797
     12 C11         6.6071    1.0676    3.9949 C.ar      1 <0>         0.1137
     13 C12         5.9051   -0.0765    4.3171 C.ar      1 <0>        -0.1160
     14 C13         5.1290   -0.7073    3.3421 C.ar      1 <0>        -0.0478
     15 C14         4.2796   -1.9009    3.3343 C.2       1 <0>        -0.1538
     16 C15         3.7737   -2.0150    2.0960 C.2       1 <0>         0.1370
     17 C16         2.8377   -3.1049    1.6410 C.3       1 <0>        -0.1009
     18 C17         3.2244   -4.5493    1.9653 C.3       1 <0>        -0.1612
     19 C18         3.3243   -4.0350    0.5278 C.3       1 <0>        -0.1748
     20 C19         4.0180   -2.8223    4.4977 C.3       1 <0>        -0.0675
     21 C20         2.8203   -2.3302    5.2688 C.2       1 <0>         0.5148
     22 O1          2.2367   -1.3298    4.9090 O.2       1 <0>        -0.5277
     23 N2          2.3978   -3.0019    6.3582 N.am      1 <0>        -0.8629
     24 O2          7.3642    1.6863    4.9401 O.3       1 <0>        -0.3125
     25 C21         8.0653    2.8654    4.5400 C.3       1 <0>         0.0673
     26 C22         8.8562    3.4164    5.7282 C.3       1 <0>        -0.0918
     27 C23         9.6069    4.6789    5.2999 C.3       1 <0>        -0.7244
     28 P1         10.5492    5.3353    6.7157 P.3       1 <0>         2.2577
     29 O3          9.5946    5.5614    7.9093 O.2       1 <0>        -1.0945
     30 O4         11.6460    4.3242    7.1177 O.3       1 <0>        -1.0953
     31 O5         11.2332    6.7333    6.3033 O.3       1 <0>        -0.9054
     32 H1         -0.4690    2.2648   -0.4863 H         1 <0>         0.1223
     33 H2          1.7652    3.2995   -0.4597 H         1 <0>         0.1235
     34 H3          3.7742    1.8867   -0.2823 H         1 <0>         0.1203
     35 H4          1.3149   -1.5958   -0.1652 H         1 <0>         0.1204
     36 H5         -0.6940   -0.1831   -0.3442 H         1 <0>         0.1223
     37 H6          3.7025   -1.7739   -0.5665 H         1 <0>         0.0976
     38 H7          4.7289   -0.3205   -0.6158 H         1 <0>         0.0919
     39 H8          5.7402    1.3906    0.7400 H         1 <0>         0.1171
     40 H9          7.0971    2.4857    2.4636 H         1 <0>         0.1288
     41 H10         5.9558   -0.4814    5.3170 H         1 <0>         0.1274
     42 H11         1.7777   -2.8515    1.6577 H         1 <0>         0.1193
     43 H12         4.1559   -4.7112    2.5078 H         1 <0>         0.1035
     44 H13         2.4187   -5.2464    2.1956 H         1 <0>         0.1026
     45 H14         2.5843   -4.3937   -0.1876 H         1 <0>         0.1004
     46 H15         4.3214   -3.8585    0.1246 H         1 <0>         0.0970
     47 H16         3.8232   -3.8288    4.1273 H         1 <0>         0.1015
     48 H17         4.8898   -2.8382    5.1517 H         1 <0>         0.1002
     49 H18         2.8646   -3.8021    6.6459 H         1 <0>         0.3993
     50 H19         1.6270   -2.6852    6.8545 H         1 <0>         0.3988
     51 H20         8.7511    2.6226    3.7283 H         1 <0>         0.0538
     52 H21         7.3509    3.6152    4.2000 H         1 <0>         0.0534
     53 H22         8.1704    3.6593    6.5399 H         1 <0>         0.0847
     54 H23         9.5706    2.6666    6.0682 H         1 <0>         0.0819
     55 H24        10.2927    4.4360    4.4882 H         1 <0>         0.0717
     56 H25         8.8925    5.4286    4.9599 H         1 <0>         0.0701
     57 H26        11.7519    7.1410    7.0102 H         1 <0>         0.4124
@<TRIPOS>BOND
     1    1    6 ar
     2    1    2 ar
     3    1   32 1
     4    2    3 ar
     5    2   33 1
     6    3    4 ar
     7    3   34 1
     8    4    5 ar
     9    4    7 1
    10    5    6 ar
    11    5   35 1
    12    6   36 1
    13    7    8 1
    14    7   37 1
    15    7   38 1
    16    8   16 1
    17    8    9 1
    18    9   14 ar
    19    9   10 ar
    20   10   11 ar
    21   10   39 1
    22   11   12 ar
    23   11   40 1
    24   12   13 ar
    25   12   24 1
    26   13   14 ar
    27   13   41 1
    28   14   15 1
    29   15   16 2
    30   15   20 1
    31   16   17 1
    32   17   19 1
    33   17   18 1
    34   17   42 1
    35   18   19 1
    36   18   43 1
    37   18   44 1
    38   19   45 1
    39   19   46 1
    40   20   21 1
    41   20   47 1
    42   20   48 1
    43   21   22 2
    44   21   23 am
    45   23   49 1
    46   23   50 1
    47   24   25 1
    48   25   26 1
    49   25   51 1
    50   25   52 1
    51   26   27 1
    52   26   53 1
    53   26   54 1
    54   27   28 1
    55   27   55 1
    56   27   56 1
    57   28   29 2
    58   28   30 1
    59   28   31 1
    60   31   57 1
@<TRIPOS>MOLECULE
CHEMBL356306__1
   56    59     0     0     0
SMALL
USER_CHARGES

@<TRIPOS>ATOM
      1 C1          0.4123    1.6449   -0.4128 C.ar      1 <0>        -0.1141
      2 C2          1.6665    2.2259   -0.3952 C.ar      1 <0>        -0.1188
      3 C3          2.7943    1.4328   -0.2953 C.ar      1 <0>        -0.0967
      4 C4          2.6678    0.0588   -0.2127 C.ar      1 <0>        -0.1088
      5 C5          1.4136   -0.5222   -0.2294 C.ar      1 <0>        -0.0993
      6 C6          0.2859    0.2708   -0.3307 C.ar      1 <0>        -0.1238
      7 C7          3.8974   -0.8059   -0.1048 C.3       1 <0>         0.1530
      8 N1          4.2371   -0.9979    1.3072 N.pl3     1 <0>        -0.4702
      9 C8          5.0669   -0.1768    2.0414 C.ar      1 <0>         0.0646
     10 C9          5.7820    0.9767    1.7367 C.ar      1 <0>        -0.0905
     11 C10         6.5436    1.5905    2.7057 C.ar      1 <0>        -0.1778
     12 C11         6.6071    1.0676    3.9949 C.ar      1 <0>         0.1229
     13 C12         5.9051   -0.0765    4.3171 C.ar      1 <0>        -0.1239
     14 C13         5.1290   -0.7073    3.3421 C.ar      1 <0>        -0.0478
     15 C14         4.2796   -1.9009    3.3343 C.2       1 <0>        -0.1532
     16 C15         3.7737   -2.0150    2.0960 C.2       1 <0>         0.1305
     17 C16         2.8377   -3.1049    1.6410 C.3       1 <0>        -0.0967
     18 C17         3.2244   -4.5493    1.9653 C.3       1 <0>        -0.1623
     19 C18         3.3243   -4.0350    0.5278 C.3       1 <0>        -0.1760
     20 C19         4.0180   -2.8223    4.4977 C.3       1 <0>        -0.0666
     21 C20         2.8203   -2.3302    5.2688 C.2       1 <0>         0.5146
     22 O1          2.2367   -1.3298    4.9090 O.2       1 <0>        -0.5261
     23 N2          2.3978   -3.0019    6.3582 N.am      1 <0>        -0.8639
     24 O2          7.3642    1.6863    4.9401 O.3       1 <0>        -0.3119
     25 C21         8.0653    2.8654    4.5400 C.3       1 <0>         0.0655
     26 C22         8.8562    3.4164    5.7282 C.3       1 <0>        -0.0848
     27 C23         9.6069    4.6789    5.2999 C.3       1 <0>        -0.7206
     28 P1         10.5492    5.3353    6.7157 P.3       1 <0>         2.2104
     29 O3          9.5813    5.5645    7.9260 O.2       1 <0>        -1.1798
     30 O4         11.6614    4.3100    7.1233 O.3       1 <0>        -1.1808
     31 O5         11.2147    6.6957    6.3144 O.3       1 <0>        -1.1851
     32 H1         -0.4690    2.2648   -0.4863 H         1 <0>         0.1211
     33 H2          1.7652    3.2995   -0.4597 H         1 <0>         0.1238
     34 H3          3.7742    1.8867   -0.2823 H         1 <0>         0.1219
     35 H4          1.3149   -1.5958   -0.1652 H         1 <0>         0.1194
     36 H5         -0.6940   -0.1831   -0.3442 H         1 <0>         0.1206
     37 H6          3.7025   -1.7739   -0.5665 H         1 <0>         0.0955
     38 H7          4.7289   -0.3205   -0.6158 H         1 <0>         0.0914
     39 H8          5.7402    1.3906    0.7400 H         1 <0>         0.1154
     40 H9          7.0971    2.4857    2.4636 H         1 <0>         0.1317
     41 H10         5.9558   -0.4814    5.3170 H         1 <0>         0.1264
     42 H11         1.7777   -2.8515    1.6577 H         1 <0>         0.1174
     43 H12         4.1559   -4.7112    2.5078 H         1 <0>         0.1035
     44 H13         2.4187   -5.2464    2.1956 H         1 <0>         0.1009
     45 H14         2.5843   -4.3937   -0.1876 H         1 <0>         0.0985
     46 H15         4.3214   -3.8585    0.1246 H         1 <0>         0.0969
     47 H16         3.8232   -3.8288    4.1273 H         1 <0>         0.0996
     48 H17         4.8898   -2.8382    5.1517 H         1 <0>         0.1004
     49 H18         2.8646   -3.8021    6.6459 H         1 <0>         0.3985
     50 H19         1.6270   -2.6852    6.8545 H         1 <0>         0.3977
     51 H20         8.7511    2.6226    3.7283 H         1 <0>         0.0502
     52 H21         7.3509    3.6152    4.2000 H         1 <0>         0.0500
     53 H22         8.1704    3.6593    6.5399 H         1 <0>         0.0744
     54 H23         9.5706    2.6666    6.0682 H         1 <0>         0.0709
     55 H24        10.2927    4.4360    4.4882 H         1 <0>         0.0460
     56 H25         8.8925    5.4286    4.9599 H         1 <0>         0.0461
@<TRIPOS>BOND
     1    1    6 ar
     2    1    2 ar
     3    1   32 1
     4    2    3 ar
     5    2   33 1
     6    3    4 ar
     7    3   34 1
     8    4    5 ar
     9    4    7 1
    10    5    6 ar
    11    5   35 1
    12    6   36 1
    13    7    8 1
    14    7   37 1
    15    7   38 1
    16    8   16 1
    17    8    9 1
    18    9   14 ar
    19    9   10 ar
    20   10   11 ar
    21   10   39 1
    22   11   12 ar
    23   11   40 1
    24   12   13 ar
    25   12   24 1
    26   13   14 ar
    27   13   41 1
    28   14   15 1
    29   15   16 2
    30   15   20 1
    31   16   17 1
    32   17   19 1
    33   17   18 1
    34   17   42 1
    35   18   19 1
    36   18   43 1
    37   18   44 1
    38   19   45 1
    39   19   46 1
    40   20   21 1
    41   20   47 1
    42   20   48 1
    43   21   22 2
    44   21   23 am
    45   23   49 1
    46   23   50 1
    47   24   25 1
    48   25   26 1
    49   25   51 1
    50   25   52 1
    51   26   27 1
    52   26   53 1
    53   26   54 1
    54   27   28 1
    55   27   55 1
    56   27   56 1
    57   28   29 2
    58   28   30 1
    59   28   31 1
@<TRIPOS>MOLECULE
CHEMBL359148
   60    63     0     0     0
SMALL
USER_CHARGES

@<TRIPOS>ATOM
      1 C1         -0.1835    2.6641    0.4799 C.3       1 <0>        -0.1007
      2 C2         -0.1304    1.2332    0.0101 C.2       1 <0>         0.1265
      3 C3         -0.2565    0.8200   -1.3030 C.2       1 <0>        -0.2204
      4 C4         -0.1405   -0.6509   -1.2828 C.ar      1 <0>        -0.0906
      5 C5          0.0484   -1.0026    0.0619 C.ar      1 <0>         0.1304
      6 N1          0.0529    0.1622    0.8037 N.pl3     1 <0>        -0.4590
      7 C6          0.2294    0.2231    2.2567 C.3       1 <0>         0.1503
      8 C7         -1.1150    0.1251    2.9306 C.ar      1 <0>        -0.0986
      9 C8         -2.2478   -0.1208    2.1812 C.ar      1 <0>        -0.0991
     10 C9         -3.4822   -0.2111    2.7983 C.ar      1 <0>        -0.1104
     11 C10        -3.5890   -0.0562    4.1689 C.ar      1 <0>        -0.1147
     12 C11        -2.4630    0.1895    4.9279 C.ar      1 <0>        -0.1043
     13 C12        -1.2160    0.2767    4.3118 C.ar      1 <0>        -0.0410
     14 C13        -0.0009    0.5356    5.1234 C.ar      1 <0>        -0.0491
     15 C14         1.0872   -0.3317    5.0495 C.ar      1 <0>        -0.1111
     16 C15         2.2150   -0.0858    5.8061 C.ar      1 <0>        -0.1155
     17 C16         2.2663    1.0191    6.6367 C.ar      1 <0>        -0.1173
     18 C17         1.1889    1.8830    6.7142 C.ar      1 <0>        -0.1173
     19 C18         0.0583    1.6500    5.9577 C.ar      1 <0>        -0.1046
     20 C19         0.1933   -2.3441    0.4019 C.ar      1 <0>        -0.1684
     21 C20         0.1512   -3.3135   -0.5776 C.ar      1 <0>        -0.0542
     22 C21        -0.0353   -2.9684   -1.9066 C.ar      1 <0>        -0.2370
     23 C22        -0.1821   -1.6399   -2.2668 C.ar      1 <0>         0.1850
     24 O1         -0.3653   -1.3009   -3.5697 O.3       1 <0>        -0.3089
     25 C23        -0.3967   -2.3682   -4.5195 C.3       1 <0>         0.0589
     26 C24        -0.6101   -1.7962   -5.9224 C.3       1 <0>        -0.0912
     27 C25        -0.6438   -2.9388   -6.9393 C.3       1 <0>        -0.1797
     28 C26        -0.8540   -2.3755   -8.3212 C.2       1 <0>         0.4918
     29 O2         -0.9664   -1.1716   -8.4781 O.co2     1 <0>        -0.6955
     30 O3         -0.9115   -3.1235   -9.2822 O.co2     1 <0>        -0.7050
     31 C27        -0.4637    1.6689   -2.4750 C.2       1 <0>         0.4424
     32 O4         -1.5905    1.9796   -2.8089 O.2       1 <0>        -0.4084
     33 C28         0.7073    2.1537   -3.2611 C.2       1 <0>         0.4899
     34 O5          1.8239    1.7615   -2.9911 O.2       1 <0>        -0.5018
     35 N2          0.5258    3.0273   -4.2713 N.am      1 <0>        -0.8288
     36 H1          0.8296    3.0580    0.5604 H         1 <0>         0.0850
     37 H2         -0.7494    3.2607   -0.2357 H         1 <0>         0.0840
     38 H3         -0.6693    2.7087    1.4547 H         1 <0>         0.0774
     39 H4          0.8597   -0.6048    2.5812 H         1 <0>         0.1055
     40 H5          0.7027    1.1673    2.5260 H         1 <0>         0.1041
     41 H6         -2.1702   -0.2426    1.1109 H         1 <0>         0.1286
     42 H7         -4.3661   -0.4029    2.2081 H         1 <0>         0.1254
     43 H8         -4.5554   -0.1272    4.6457 H         1 <0>         0.1252
     44 H9         -2.5475    0.3107    5.9977 H         1 <0>         0.1251
     45 H10         1.0479   -1.1949    4.4016 H         1 <0>         0.1235
     46 H11         3.0587   -0.7576    5.7499 H         1 <0>         0.1252
     47 H12         3.1508    1.2077    7.2270 H         1 <0>         0.1228
     48 H13         1.2342    2.7441    7.3646 H         1 <0>         0.1241
     49 H14        -0.7806    2.3276    6.0156 H         1 <0>         0.1239
     50 H15         0.3393   -2.6262    1.4342 H         1 <0>         0.1184
     51 H16         0.2651   -4.3526   -0.3063 H         1 <0>         0.1283
     52 H17        -0.0663   -3.7381   -2.6636 H         1 <0>         0.1328
     53 H18         0.5483   -2.9104   -4.4881 H         1 <0>         0.0602
     54 H19        -1.2137   -3.0474   -4.2759 H         1 <0>         0.0601
     55 H20        -1.5551   -1.2539   -5.9538 H         1 <0>         0.0705
     56 H21         0.2068   -1.1170   -6.1660 H         1 <0>         0.0697
     57 H22         0.3012   -3.4811   -6.9079 H         1 <0>         0.0593
     58 H23        -1.4607   -3.6181   -6.6957 H         1 <0>         0.0593
     59 H24        -0.3664    3.3407   -4.4870 H         1 <0>         0.4105
     60 H25         1.2875    3.3426   -4.7825 H         1 <0>         0.4086
@<TRIPOS>BOND
     1    1    2 1
     2    1   36 1
     3    1   37 1
     4    1   38 1
     5    2    6 1
     6    2    3 2
     7    3    4 1
     8    3   31 1
     9    4   23 ar
    10    4    5 ar
    11    5    6 1
    12    5   20 ar
    13    6    7 1
    14    7    8 1
    15    7   39 1
    16    7   40 1
    17    8   13 ar
    18    8    9 ar
    19    9   10 ar
    20    9   41 1
    21   10   11 ar
    22   10   42 1
    23   11   12 ar
    24   11   43 1
    25   12   13 ar
    26   12   44 1
    27   13   14 1
    28   14   19 ar
    29   14   15 ar
    30   15   16 ar
    31   15   45 1
    32   16   17 ar
    33   16   46 1
    34   17   18 ar
    35   17   47 1
    36   18   19 ar
    37   18   48 1
    38   19   49 1
    39   20   21 ar
    40   20   50 1
    41   21   22 ar
    42   21   51 1
    43   22   23 ar
    44   22   52 1
    45   23   24 1
    46   24   25 1
    47   25   26 1
    48   25   53 1
    49   25   54 1
    50   26   27 1
    51   26   55 1
    52   26   56 1
    53   27   28 1
    54   27   57 1
    55   27   58 1
    56   28   29 2
    57   28   30 1
    58   31   32 2
    59   31   33 1
    60   33   34 2
    61   33   35 am
    62   35   59 1
    63   35   60 1
@<TRIPOS>MOLECULE
CHEMBL425697
   55    58     0     0     0
SMALL
USER_CHARGES

@<TRIPOS>ATOM
      1 C1          0.1281    1.5618    0.1300 C.3       1 <0>        -0.1063
      2 C2          0.1144    0.0557    0.0792 C.2       1 <0>         0.1373
      3 C3          0.0596   -0.7029   -1.0752 C.2       1 <0>        -0.2298
      4 C4          0.0679   -2.1126   -0.6394 C.ar      1 <0>        -0.0783
      5 C5          0.0301   -3.3358   -1.3107 C.ar      1 <0>         0.1725
      6 C6          0.0521   -4.5117   -0.5847 C.ar      1 <0>        -0.2158
      7 C7          0.1113   -4.4829    0.8035 C.ar      1 <0>        -0.0395
      8 C8          0.1488   -3.2792    1.4750 C.ar      1 <0>        -0.1338
      9 C9          0.1277   -2.0819    0.7601 C.ar      1 <0>         0.1492
     10 N1          0.1595   -0.7575    1.1504 N.pl3     1 <0>        -0.4507
     11 C10         0.2297   -0.3005    2.5405 C.3       1 <0>         0.1416
     12 C11         1.6641   -0.0140    2.9033 C.ar      1 <0>        -0.1172
     13 C12         2.4212   -0.9780    3.5424 C.ar      1 <0>        -0.1017
     14 C13         3.7369   -0.7152    3.8752 C.ar      1 <0>        -0.1191
     15 C14         4.2957    0.5114    3.5684 C.ar      1 <0>        -0.1077
     16 C15         3.5389    1.4750    2.9284 C.ar      1 <0>        -0.1189
     17 C16         2.2244    1.2107    2.5918 C.ar      1 <0>        -0.1033
     18 C17         0.2097   -3.5251    2.9677 C.3       1 <0>        -0.0782
     19 C18        -0.2347   -4.9914    3.1535 C.3       1 <0>        -0.1187
     20 C19         0.1450   -5.6248    1.7984 C.3       1 <0>        -0.0795
     21 O1         -0.0284   -3.3703   -2.6677 O.3       1 <0>        -0.2913
     22 C20        -0.0644   -4.6595   -3.2830 C.3       1 <0>         0.0687
     23 C21        -0.1275   -4.5000   -4.7802 C.2       1 <0>         0.4613
     24 O2         -0.1403   -3.3956   -5.2701 O.2       1 <0>        -0.4783
     25 O3         -0.1694   -5.5849   -5.5696 O.3       1 <0>        -0.3495
     26 C22        -0.2282   -5.3595   -6.9794 C.3       1 <0>         0.0350
     27 C23         0.0042   -0.2083   -2.4499 C.2       1 <0>         0.4444
     28 O4         -1.0650    0.0882   -2.9465 O.2       1 <0>        -0.4097
     29 C24         1.2594   -0.0676   -3.2430 C.2       1 <0>         0.4909
     30 O5          2.3152   -0.4492   -2.7811 O.2       1 <0>        -0.5011
     31 N2          1.2216    0.4832   -4.4724 N.am      1 <0>        -0.8291
     32 H1          1.1584    1.9144    0.1774 H         1 <0>         0.0887
     33 H2         -0.3513    1.9598   -0.7644 H         1 <0>         0.0860
     34 H3         -0.4129    1.9005    1.0135 H         1 <0>         0.0810
     35 H4          0.0226   -5.4603   -1.1002 H         1 <0>         0.1319
     36 H5         -0.3623    0.6076    2.6548 H         1 <0>         0.1016
     37 H6         -0.1635   -1.0757    3.1982 H         1 <0>         0.1056
     38 H7          1.9846   -1.9363    3.7822 H         1 <0>         0.1261
     39 H8          4.3281   -1.4680    4.3752 H         1 <0>         0.1253
     40 H9          5.3234    0.7170    3.8290 H         1 <0>         0.1246
     41 H10         3.9753    2.4335    2.6890 H         1 <0>         0.1254
     42 H11         1.6343    1.9622    2.0885 H         1 <0>         0.1241
     43 H12         1.2280   -3.3894    3.3322 H         1 <0>         0.0787
     44 H13        -0.4724   -2.8541    3.4898 H         1 <0>         0.0694
     45 H14         0.3141   -5.4625    3.9690 H         1 <0>         0.0788
     46 H15        -1.3098   -5.0522    3.3222 H         1 <0>         0.0747
     47 H16        -0.5810   -6.3892    1.5216 H         1 <0>         0.0785
     48 H17         1.1460   -6.0533    1.8485 H         1 <0>         0.0837
     49 H18         0.8339   -5.2155   -3.0144 H         1 <0>         0.1101
     50 H19        -0.9444   -5.2023   -2.9380 H         1 <0>         0.1102
     51 H20        -0.2576   -6.3170   -7.4995 H         1 <0>         0.1075
     52 H21        -1.1251   -4.7882   -7.2189 H         1 <0>         0.0637
     53 H22         0.6532   -4.8014   -7.2953 H         1 <0>         0.0634
     54 H23         0.3779    0.7881   -4.8415 H         1 <0>         0.4099
     55 H24         2.0379    0.5747   -4.9883 H         1 <0>         0.4077
@<TRIPOS>BOND
     1    1    2 1
     2    1   32 1
     3    1   33 1
     4    1   34 1
     5    2   10 1
     6    2    3 2
     7    3    4 1
     8    3   27 1
     9    4    9 ar
    10    4    5 ar
    11    5    6 ar
    12    5   21 1
    13    6    7 ar
    14    6   35 1
    15    7   20 1
    16    7    8 ar
    17    8    9 ar
    18    8   18 1
    19    9   10 1
    20   10   11 1
    21   11   12 1
    22   11   36 1
    23   11   37 1
    24   12   17 ar
    25   12   13 ar
    26   13   14 ar
    27   13   38 1
    28   14   15 ar
    29   14   39 1
    30   15   16 ar
    31   15   40 1
    32   16   17 ar
    33   16   41 1
    34   17   42 1
    35   18   19 1
    36   18   43 1
    37   18   44 1
    38   19   20 1
    39   19   45 1
    40   19   46 1
    41   20   47 1
    42   20   48 1
    43   21   22 1
    44   22   23 1
    45   22   49 1
    46   22   50 1
    47   23   24 2
    48   23   25 1
    49   25   26 1
    50   26   51 1
    51   26   52 1
    52   26   53 1
    53   27   28 2
    54   27   29 1
    55   29   30 2
    56   29   31 am
    57   31   54 1
    58   31   55 1
@<TRIPOS>MOLECULE
CHEMBL433701
   55    56     0     0     0
SMALL
USER_CHARGES

@<TRIPOS>ATOM
      1 C1         -0.5730    1.9235   -0.3808 C.3       1 <0>        -0.1541
      2 C2         -0.4560    0.4011   -0.2833 C.3       1 <0>        -0.1255
      3 C3         -1.8548   -0.2187   -0.2781 C.3       1 <0>        -0.1221
      4 C4         -1.7378   -1.7411   -0.1806 C.3       1 <0>        -0.1196
      5 C5         -3.1366   -2.3608   -0.1755 C.3       1 <0>        -0.1202
      6 C6         -3.0196   -3.8832   -0.0780 C.3       1 <0>        -0.1150
      7 C7         -4.4185   -4.5030   -0.0729 C.3       1 <0>        -0.1391
      8 C8         -4.3014   -6.0254    0.0247 C.3       1 <0>         0.1080
      9 N1         -5.6408   -6.6188    0.0296 N.pl3     1 <0>        -0.4609
     10 C9         -6.3687   -6.8545    1.1364 C.2       1 <0>         0.1131
     11 C10        -7.5797   -7.4192    0.7823 C.2       1 <0>        -0.2132
     12 C11        -7.5663   -7.5289   -0.6892 C.ar      1 <0>        -0.0971
     13 C12        -6.3312   -7.0072   -1.1016 C.ar      1 <0>         0.1315
     14 C13        -6.0253   -6.9708   -2.4585 C.ar      1 <0>        -0.1809
     15 C14        -6.9329   -7.4405   -3.3841 C.ar      1 <0>        -0.0524
     16 C15        -8.1551   -7.9528   -2.9792 C.ar      1 <0>        -0.2486
     17 C16        -8.4758   -8.0071   -1.6337 C.ar      1 <0>         0.1864
     18 O1         -9.6748   -8.5074   -1.2363 O.3       1 <0>        -0.2776
     19 C17       -10.5531   -8.9780   -2.2606 C.3       1 <0>        -0.0072
     20 C18       -11.8241   -9.4923   -1.6352 C.2       1 <0>         0.5018
     21 O2        -11.9648   -9.4589   -0.4246 O.co2     1 <0>        -0.6685
     22 O3        -12.7118   -9.9418   -2.3399 O.co2     1 <0>        -0.6884
     23 C19        -8.6563   -7.8261    1.6837 C.2       1 <0>         0.4427
     24 O4         -8.6856   -8.9593    2.1230 O.2       1 <0>        -0.4064
     25 C20        -9.7187   -6.8511    2.0645 C.2       1 <0>         0.4969
     26 O5         -9.7430   -5.7500    1.5541 O.2       1 <0>        -0.5091
     27 N2        -10.6516   -7.1924    2.9753 N.am      1 <0>        -0.8260
     28 C21        -5.9307   -6.5500    2.5459 C.3       1 <0>        -0.0947
     29 H1          0.4235    2.3650   -0.3844 H         1 <0>         0.0523
     30 H2         -1.0918    2.1898   -1.3017 H         1 <0>         0.0535
     31 H3         -1.1342    2.3003    0.4743 H         1 <0>         0.0533
     32 H4          0.1052    0.0243   -1.1384 H         1 <0>         0.0600
     33 H5          0.0627    0.1348    0.6377 H         1 <0>         0.0598
     34 H6         -2.4160    0.1581    0.5769 H         1 <0>         0.0610
     35 H7         -2.3736    0.0476   -1.1991 H         1 <0>         0.0612
     36 H8         -1.1766   -2.1178   -1.0357 H         1 <0>         0.0607
     37 H9         -1.2191   -2.0073    0.7403 H         1 <0>         0.0605
     38 H10        -3.6979   -1.9840    0.6796 H         1 <0>         0.0625
     39 H11        -3.6554   -2.0945   -1.0964 H         1 <0>         0.0630
     40 H12        -2.4584   -4.2600   -0.9331 H         1 <0>         0.0643
     41 H13        -2.5009   -4.1495    0.8430 H         1 <0>         0.0638
     42 H14        -4.9797   -4.1262    0.7822 H         1 <0>         0.0712
     43 H15        -4.9372   -4.2367   -0.9938 H         1 <0>         0.0730
     44 H16        -3.7402   -6.4022   -0.8304 H         1 <0>         0.0897
     45 H17        -3.7827   -6.2916    0.9456 H         1 <0>         0.0893
     46 H18        -5.0761   -6.5739   -2.7871 H         1 <0>         0.1164
     47 H19        -6.6889   -7.4084   -4.4357 H         1 <0>         0.1250
     48 H20        -8.8566   -8.3173   -3.7151 H         1 <0>         0.1307
     49 H21       -10.7883   -8.1601   -2.9416 H         1 <0>         0.0607
     50 H22       -10.0685   -9.7830   -2.8131 H         1 <0>         0.0606
     51 H23       -10.6321   -8.0723    3.3832 H         1 <0>         0.4100
     52 H24       -11.3425   -6.5582    3.2230 H         1 <0>         0.4054
     53 H25        -6.1573   -5.5099    2.7801 H         1 <0>         0.0825
     54 H26        -6.4605   -7.2024    3.2399 H         1 <0>         0.0813
     55 H27        -4.8575   -6.7175    2.6370 H         1 <0>         0.0745
@<TRIPOS>BOND
     1    1    2 1
     2    1   29 1
     3    1   30 1
     4    1   31 1
     5    2    3 1
     6    2   32 1
     7    2   33 1
     8    3    4 1
     9    3   34 1
    10    3   35 1
    11    4    5 1
    12    4   36 1
    13    4   37 1
    14    5    6 1
    15    5   38 1
    16    5   39 1
    17    6    7 1
    18    6   40 1
    19    6   41 1
    20    7    8 1
    21    7   42 1
    22    7   43 1
    23    8    9 1
    24    8   44 1
    25    8   45 1
    26    9   13 1
    27    9   10 1
    28   10   11 2
    29   10   28 1
    30   11   12 1
    31   11   23 1
    32   12   17 ar
    33   12   13 ar
    34   13   14 ar
    35   14   15 ar
    36   14   46 1
    37   15   16 ar
    38   15   47 1
    39   16   17 ar
    40   16   48 1
    41   17   18 1
    42   18   19 1
    43   19   20 1
    44   19   49 1
    45   19   50 1
    46   20   21 2
    47   20   22 1
    48   23   24 2
    49   23   25 1
    50   25   26 2
    51   25   27 am
    52   27   51 1
    53   27   52 1
    54   28   53 1
    55   28   54 1
    56   28   55 1
@<TRIPOS>MOLECULE
CHEMBL148674
   47    49     0     0     0
SMALL
USER_CHARGES

@<TRIPOS>ATOM
      1 C1         -0.0128    1.4965    0.0300 C.3       1 <0>        -0.1505
      2 C2          0.0101   -0.0331    0.0044 C.3       1 <0>        -0.0693
      3 C3          0.7122   -0.5042   -1.2431 C.2       1 <0>         0.1217
      4 C4          0.0995   -0.7532   -2.4570 C.2       1 <0>        -0.2096
      5 C5          1.1699   -1.1883   -3.3748 C.ar      1 <0>        -0.0972
      6 C6          2.3538   -1.1635   -2.6229 C.ar      1 <0>         0.1347
      7 N1          2.0325   -0.7414   -1.3479 N.pl3     1 <0>        -0.4554
      8 C7          2.9970   -0.5776   -0.2574 C.3       1 <0>         0.1485
      9 C8          3.1161   -1.8713    0.5063 C.ar      1 <0>        -0.1140
     10 C9          2.2837   -2.1181    1.5819 C.ar      1 <0>        -0.1020
     11 C10         2.3930   -3.3048    2.2824 C.ar      1 <0>        -0.1204
     12 C11         3.3345   -4.2448    1.9071 C.ar      1 <0>        -0.1116
     13 C12         4.1663   -3.9983    0.8309 C.ar      1 <0>        -0.1199
     14 C13         4.0541   -2.8135    0.1277 C.ar      1 <0>        -0.0947
     15 C14         3.5529   -1.5290   -3.2269 C.ar      1 <0>        -0.1808
     16 C15         3.5709   -1.9104   -4.5518 C.ar      1 <0>        -0.0519
     17 C16         2.4026   -1.9356   -5.2965 C.ar      1 <0>        -0.2482
     18 C17         1.1988   -1.5763   -4.7152 C.ar      1 <0>         0.1863
     19 O1          0.0529   -1.6012   -5.4447 O.3       1 <0>        -0.2782
     20 C18         0.1617   -2.0091   -6.8099 C.3       1 <0>        -0.0073
     21 C19        -1.2001   -1.9750   -7.4544 C.2       1 <0>         0.5023
     22 O2         -2.1736   -1.6330   -6.8049 O.co2     1 <0>        -0.6684
     23 O3         -1.3284   -2.2894   -8.6254 O.co2     1 <0>        -0.6883
     24 C20        -1.3221   -0.6143   -2.7683 C.2       1 <0>         0.4444
     25 O4         -1.7679    0.4653   -3.1052 O.2       1 <0>        -0.4100
     26 C21        -2.2254   -1.7972   -2.6727 C.2       1 <0>         0.4968
     27 O5         -1.8019   -2.8513   -2.2449 O.2       1 <0>        -0.5128
     28 N2         -3.5120   -1.6958   -3.0613 N.am      1 <0>        -0.8211
     29 H1          1.0092    1.8753    0.0232 H         1 <0>         0.0557
     30 H2         -0.5434    1.8666   -0.8472 H         1 <0>         0.0677
     31 H3         -0.5206    1.8372    0.9323 H         1 <0>         0.0645
     32 H4          0.5407   -0.4033    0.8817 H         1 <0>         0.0799
     33 H5         -1.0119   -0.4120    0.0112 H         1 <0>         0.0865
     34 H6          3.9693   -0.3082   -0.6697 H         1 <0>         0.0995
     35 H7          2.6560    0.2105    0.4139 H         1 <0>         0.0989
     36 H8          1.5481   -1.3837    1.8751 H         1 <0>         0.1232
     37 H9          1.7430   -3.4974    3.1232 H         1 <0>         0.1236
     38 H10         3.4203   -5.1716    2.4548 H         1 <0>         0.1223
     39 H11         4.9021   -4.7326    0.5379 H         1 <0>         0.1237
     40 H12         4.7015   -2.6225   -0.7154 H         1 <0>         0.1235
     41 H13         4.4704   -1.5136   -2.6575 H         1 <0>         0.1154
     42 H14         4.5054   -2.1921   -5.0141 H         1 <0>         0.1249
     43 H15         2.4313   -2.2364   -6.3333 H         1 <0>         0.1305
     44 H16         0.8313   -1.3314   -7.3394 H         1 <0>         0.0605
     45 H17         0.5600   -3.0227   -6.8556 H         1 <0>         0.0603
     46 H18        -3.8504   -0.8535   -3.4032 H         1 <0>         0.4110
     47 H19        -4.0995   -2.4651   -2.9991 H         1 <0>         0.4053
@<TRIPOS>BOND
     1    1    2 1
     2    1   29 1
     3    1   30 1
     4    1   31 1
     5    2    3 1
     6    2   32 1
     7    2   33 1
     8    3    7 1
     9    3    4 2
    10    4    5 1
    11    4   24 1
    12    5   18 ar
    13    5    6 ar
    14    6    7 1
    15    6   15 ar
    16    7    8 1
    17    8    9 1
    18    8   34 1
    19    8   35 1
    20    9   14 ar
    21    9   10 ar
    22   10   11 ar
    23   10   36 1
    24   11   12 ar
    25   11   37 1
    26   12   13 ar
    27   12   38 1
    28   13   14 ar
    29   13   39 1
    30   14   40 1
    31   15   16 ar
    32   15   41 1
    33   16   17 ar
    34   16   42 1
    35   17   18 ar
    36   17   43 1
    37   18   19 1
    38   19   20 1
    39   20   21 1
    40   20   44 1
    41   20   45 1
    42   21   22 2
    43   21   23 1
    44   24   25 2
    45   24   26 1
    46   26   27 2
    47   26   28 am
    48   28   46 1
    49   28   47 1
@<TRIPOS>MOLECULE
CHEMBL436456
   60    63     0     0     0
SMALL
USER_CHARGES

@<TRIPOS>ATOM
      1 C1         -0.3441    0.3191   -0.5964 C.3       1 <0>        -0.1489
      2 C2         -0.0098   -1.1672   -0.4541 C.3       1 <0>        -0.0666
      3 C3          0.9934   -1.5595   -1.5080 C.2       1 <0>         0.1207
      4 C4          0.6816   -2.0186   -2.7740 C.2       1 <0>        -0.2078
      5 C5          1.9701   -2.2733   -3.4467 C.ar      1 <0>        -0.0967
      6 C6          2.9627   -1.9405   -2.5131 C.ar      1 <0>         0.1335
      7 N1          2.3303   -1.5113   -1.3630 N.pl3     1 <0>        -0.4588
      8 C7          3.0206   -1.0675   -0.1494 C.3       1 <0>         0.1446
      9 C8          3.2866   -2.2547    0.7399 C.ar      1 <0>        -0.1050
     10 C9          2.7827   -3.4973    0.4031 C.ar      1 <0>        -0.0951
     11 C10         3.0266   -4.5862    1.2187 C.ar      1 <0>        -0.1149
     12 C11         3.7749   -4.4328    2.3711 C.ar      1 <0>        -0.1150
     13 C12         4.2794   -3.1907    2.7073 C.ar      1 <0>        -0.1147
     14 C13         4.0390   -2.1024    1.8892 C.ar      1 <0>        -0.0695
     15 C14         4.5935   -0.7492    2.2530 C.3       1 <0>        -0.0472
     16 C15         3.5712    0.0133    3.0559 C.ar      1 <0>        -0.0729
     17 C16         2.7213    0.9032    2.4260 C.ar      1 <0>        -0.1222
     18 C17         1.7836    1.6026    3.1625 C.ar      1 <0>        -0.1138
     19 C18         1.6954    1.4118    4.5287 C.ar      1 <0>        -0.1238
     20 C19         2.5446    0.5212    5.1585 C.ar      1 <0>        -0.1167
     21 C20         3.4795   -0.1814    4.4214 C.ar      1 <0>        -0.1128
     22 C21         4.3022   -2.0780   -2.8639 C.ar      1 <0>        -0.1779
     23 C22         4.6442   -2.5368   -4.1183 C.ar      1 <0>        -0.0515
     24 C23         3.6653   -2.8661   -5.0421 C.ar      1 <0>        -0.2468
     25 C24         2.3268   -2.7373   -4.7137 C.ar      1 <0>         0.1856
     26 O1          1.3665   -3.0603   -5.6190 O.3       1 <0>        -0.2780
     27 C25         1.8086   -3.5281   -6.8948 C.3       1 <0>        -0.0072
     28 C26         0.6130   -3.8347   -7.7594 C.2       1 <0>         0.5021
     29 O2         -0.5134   -3.6681   -7.3234 O.co2     1 <0>        -0.6685
     30 O3          0.7720   -4.2494   -8.8948 O.co2     1 <0>        -0.6881
     31 C27        -0.6550   -2.2132   -3.3334 C.2       1 <0>         0.4434
     32 O4         -1.2256   -1.2893   -3.8799 O.2       1 <0>        -0.4080
     33 C28        -1.3185   -3.5451   -3.2336 C.2       1 <0>         0.4969
     34 O5         -0.7844   -4.4446   -2.6177 O.2       1 <0>        -0.5135
     35 N2         -2.5110   -3.7502   -3.8272 N.am      1 <0>        -0.8213
     36 H1          0.5638    0.9093   -0.4714 H         1 <0>         0.0543
     37 H2         -0.7644    0.5040   -1.5850 H         1 <0>         0.0671
     38 H3         -1.0697    0.6029    0.1658 H         1 <0>         0.0645
     39 H4          0.4105   -1.3520    0.5344 H         1 <0>         0.0798
     40 H5         -0.9177   -1.7573   -0.5792 H         1 <0>         0.0864
     41 H6          3.9660   -0.5975   -0.4204 H         1 <0>         0.1011
     42 H7          2.3964   -0.3486    0.3813 H         1 <0>         0.1063
     43 H8          2.1982   -3.6171   -0.4971 H         1 <0>         0.1300
     44 H9          2.6324   -5.5567    0.9560 H         1 <0>         0.1237
     45 H10         3.9650   -5.2834    3.0088 H         1 <0>         0.1214
     46 H11         4.8637   -3.0708    3.6077 H         1 <0>         0.1210
     47 H12         5.5000   -0.8751    2.8450 H         1 <0>         0.0857
     48 H13         4.8274   -0.1959    1.3435 H         1 <0>         0.0817
     49 H14         2.7903    1.0523    1.3586 H         1 <0>         0.1206
     50 H15         1.1201    2.2984    2.6705 H         1 <0>         0.1225
     51 H16         0.9632    1.9587    5.1042 H         1 <0>         0.1204
     52 H17         2.4759    0.3723    6.2260 H         1 <0>         0.1206
     53 H18         4.1405   -0.8799    4.9129 H         1 <0>         0.1202
     54 H19         5.0748   -1.8247   -2.1530 H         1 <0>         0.1159
     55 H20         5.6859   -2.6403   -4.3838 H         1 <0>         0.1249
     56 H21         3.9474   -3.2243   -6.0212 H         1 <0>         0.1306
     57 H22         2.4155   -2.7594   -7.3733 H         1 <0>         0.0605
     58 H23         2.4038   -4.4318   -6.7641 H         1 <0>         0.0603
     59 H24        -2.9377   -3.0314   -4.3194 H         1 <0>         0.4113
     60 H25        -2.9425   -4.6165   -3.7623 H         1 <0>         0.4055
@<TRIPOS>BOND
     1    1    2 1
     2    1   36 1
     3    1   37 1
     4    1   38 1
     5    2    3 1
     6    2   39 1
     7    2   40 1
     8    3    7 1
     9    3    4 2
    10    4    5 1
    11    4   31 1
    12    5   25 ar
    13    5    6 ar
    14    6    7 1
    15    6   22 ar
    16    7    8 1
    17    8    9 1
    18    8   41 1
    19    8   42 1
    20    9   14 ar
    21    9   10 ar
    22   10   11 ar
    23   10   43 1
    24   11   12 ar
    25   11   44 1
    26   12   13 ar
    27   12   45 1
    28   13   14 ar
    29   13   46 1
    30   14   15 1
    31   15   16 1
    32   15   47 1
    33   15   48 1
    34   16   21 ar
    35   16   17 ar
    36   17   18 ar
    37   17   49 1
    38   18   19 ar
    39   18   50 1
    40   19   20 ar
    41   19   51 1
    42   20   21 ar
    43   20   52 1
    44   21   53 1
    45   22   23 ar
    46   22   54 1
    47   23   24 ar
    48   23   55 1
    49   24   25 ar
    50   24   56 1
    51   25   26 1
    52   26   27 1
    53   27   28 1
    54   27   57 1
    55   27   58 1
    56   28   29 2
    57   28   30 1
    58   31   32 2
    59   31   33 1
    60   33   34 2
    61   33   35 am
    62   35   59 1
    63   35   60 1
@<TRIPOS>MOLECULE
CHEMBL121517
   33    34     0     0     0
SMALL
USER_CHARGES

@<TRIPOS>ATOM
      1 C1         -0.0187    1.5258    0.0104 C.3       1 <0>        -0.1546
      2 C2          0.0021   -0.0041    0.0020 C.3       1 <0>        -0.1242
      3 C3          0.7182   -0.4975   -1.2568 C.3       1 <0>        -0.1138
      4 C4          0.7390   -2.0273   -1.2652 C.3       1 <0>        -0.0389
      5 C5          1.4443   -2.5133   -2.5051 C.2       1 <0>         0.2668
      6 N1          1.1352   -2.1829   -3.7315 N.2       1 <0>        -0.4743
      7 C6          1.9635   -2.7930   -4.5840 C.2       1 <0>         0.1196
      8 C7          2.8377   -3.5455   -3.8507 C.2       1 <0>         0.0254
      9 N2          2.4986   -3.3537   -2.5259 N.pl3     1 <0>        -0.5474
     10 C8          3.9236   -4.3859   -4.3680 C.2       1 <0>         0.1402
     11 N3          4.2325   -4.5444   -5.6154 N.2       1 <0>        -0.2527
     12 O1          5.3335   -5.4119   -5.8012 O.3       1 <0>        -0.1721
     13 C9          5.5048   -6.1663   -4.5843 C.3       1 <0>         0.0448
     14 C10         4.8823   -5.2138   -3.5334 C.3       1 <0>        -0.1426
     15 C11         6.9877   -6.4038   -4.2918 C.3       1 <0>         0.0832
     16 O2          7.5398   -7.2599   -5.2939 O.3       1 <0>        -0.5631
     17 Cl1         1.9346   -2.6547   -6.3142 Cl        1 <0>         0.0234
     18 H1          1.0039    1.9031    0.0027 H         1 <0>         0.0537
     19 H2         -0.5459    1.8868   -0.8726 H         1 <0>         0.0566
     20 H3         -0.5289    1.8773    0.9072 H         1 <0>         0.0556
     21 H4          0.5293   -0.3651    0.8851 H         1 <0>         0.0618
     22 H5         -1.0205   -0.3814    0.0098 H         1 <0>         0.0657
     23 H6          0.1910   -0.1364   -2.1398 H         1 <0>         0.0805
     24 H7          1.7408   -0.1202   -1.2645 H         1 <0>         0.0643
     25 H8          1.2661   -2.3884   -0.3821 H         1 <0>         0.0860
     26 H9         -0.2836   -2.4046   -1.2575 H         1 <0>         0.1015
     27 H10         4.9621   -7.1104   -4.6311 H         1 <0>         0.0994
     28 H11         5.6459   -4.5816   -3.0802 H         1 <0>         0.1088
     29 H12         4.3440   -5.7783   -2.7720 H         1 <0>         0.1056
     30 H13         7.5162   -5.4505   -4.2969 H         1 <0>         0.0585
     31 H14         7.0945   -6.8732   -3.3139 H         1 <0>         0.0669
     32 H15         8.4792   -7.4538   -5.1716 H         1 <0>         0.3866
     33 H16         2.9352   -3.7502   -1.7558 H         1 <0>         0.4289
@<TRIPOS>BOND
     1    1    2 1
     2    1   18 1
     3    1   19 1
     4    1   20 1
     5    2    3 1
     6    2   21 1
     7    2   22 1
     8    3    4 1
     9    3   23 1
    10    3   24 1
    11    4    5 1
    12    4   25 1
    13    4   26 1
    14    5    9 1
    15    5    6 2
    16    6    7 1
    17    7    8 2
    18    7   17 1
    19    8    9 1
    20    8   10 1
    21    9   33 1
    22   10   14 1
    23   10   11 2
    24   11   12 1
    25   12   13 1
    26   13   14 1
    27   13   15 1
    28   13   27 1
    29   14   28 1
    30   14   29 1
    31   15   16 1
    32   15   30 1
    33   15   31 1
    34   16   32 1
@<TRIPOS>MOLECULE
CHEMBL121517__1
   33    34     0     0     0
SMALL
USER_CHARGES

@<TRIPOS>ATOM
      1 C1         -0.0187    1.5258    0.0104 C.3       1 <0>        -0.1546
      2 C2          0.0021   -0.0041    0.0020 C.3       1 <0>        -0.1241
      3 C3          0.7182   -0.4975   -1.2568 C.3       1 <0>        -0.1138
      4 C4          0.7390   -2.0273   -1.2652 C.3       1 <0>        -0.0389
      5 C5          1.4443   -2.5133   -2.5051 C.2       1 <0>         0.2669
      6 N1          1.1352   -2.1829   -3.7315 N.2       1 <0>        -0.4743
      7 C6          1.9635   -2.7930   -4.5840 C.2       1 <0>         0.1196
      8 C7          2.8377   -3.5455   -3.8507 C.2       1 <0>         0.0254
      9 N2          2.4986   -3.3537   -2.5259 N.pl3     1 <0>        -0.5474
     10 C8          3.9236   -4.3859   -4.3680 C.2       1 <0>         0.1406
     11 N3          4.2325   -4.5444   -5.6154 N.2       1 <0>        -0.2528
     12 O1          5.3244   -5.4232   -5.8020 O.3       1 <0>        -0.1717
     13 C9          6.0091   -5.5427   -4.5387 C.3       1 <0>         0.0446
     14 C10         4.8823   -5.2138   -3.5334 C.3       1 <0>        -0.1428
     15 C11         6.5336   -6.9652   -4.3329 C.3       1 <0>         0.0836
     16 O2          7.5565   -7.2393   -5.2924 O.3       1 <0>        -0.5630
     17 Cl1         1.9346   -2.6547   -6.3142 Cl        1 <0>         0.0234
     18 H1          1.0039    1.9031    0.0027 H         1 <0>         0.0537
     19 H2         -0.5459    1.8868   -0.8726 H         1 <0>         0.0566
     20 H3         -0.5289    1.8773    0.9072 H         1 <0>         0.0556
     21 H4          0.5293   -0.3651    0.8851 H         1 <0>         0.0618
     22 H5         -1.0205   -0.3814    0.0098 H         1 <0>         0.0657
     23 H6          0.1910   -0.1364   -2.1398 H         1 <0>         0.0805
     24 H7          1.7408   -0.1202   -1.2645 H         1 <0>         0.0643
     25 H8          1.2661   -2.3884   -0.3821 H         1 <0>         0.0860
     26 H9         -0.2836   -2.4046   -1.2575 H         1 <0>         0.1015
     27 H10         6.8178   -4.8158   -4.4632 H         1 <0>         0.0983
     28 H11         5.2672   -4.6323   -2.6956 H         1 <0>         0.1059
     29 H12         4.4009   -6.1269   -3.1831 H         1 <0>         0.1085
     30 H13         6.9440   -7.0592   -3.3275 H         1 <0>         0.0669
     31 H14         5.7167   -7.6756   -4.4597 H         1 <0>         0.0587
     32 H15         7.9356   -8.1260   -5.2208 H         1 <0>         0.3867
     33 H16         2.9352   -3.7502   -1.7558 H         1 <0>         0.4289
@<TRIPOS>BOND
     1    1    2 1
     2    1   18 1
     3    1   19 1
     4    1   20 1
     5    2    3 1
     6    2   21 1
     7    2   22 1
     8    3    4 1
     9    3   23 1
    10    3   24 1
    11    4    5 1
    12    4   25 1
    13    4   26 1
    14    5    9 1
    15    5    6 2
    16    6    7 1
    17    7    8 2
    18    7   17 1
    19    8    9 1
    20    8   10 1
    21    9   33 1
    22   10   14 1
    23   10   11 2
    24   11   12 1
    25   12   13 1
    26   13   14 1
    27   13   15 1
    28   13   27 1
    29   14   28 1
    30   14   29 1
    31   15   16 1
    32   15   30 1
    33   15   31 1
    34   16   32 1
@<TRIPOS>MOLECULE
CHEMBL330852
   38    39     0     0     0
SMALL
USER_CHARGES

@<TRIPOS>ATOM
      1 C1         -0.0187    1.5258    0.0104 C.3       1 <0>        -0.1548
      2 C2          0.0021   -0.0041    0.0020 C.3       1 <0>        -0.1241
      3 C3         -1.4333   -0.5336    0.0129 C.3       1 <0>        -0.1141
      4 C4         -1.4126   -2.0635    0.0045 C.3       1 <0>        -0.0397
      5 C5         -2.8264   -2.5851    0.0152 C.2       1 <0>         0.2714
      6 N1         -3.7420   -2.2745    0.8949 N.2       1 <0>        -0.4740
      7 C6         -4.8787   -2.9143    0.6059 C.2       1 <0>         0.1249
      8 C7         -4.6618   -3.6656   -0.5152 C.2       1 <0>         0.0204
      9 N2         -3.3502   -3.4421   -0.8845 N.pl3     1 <0>        -0.5466
     10 C8         -5.6313   -4.5330   -1.1941 C.2       1 <0>         0.1512
     11 N3         -6.8617   -4.7212   -0.8374 N.2       1 <0>        -0.2435
     12 O1         -7.5509   -5.6092   -1.6950 O.3       1 <0>        -0.1574
     13 C9         -6.5641   -6.3417   -2.4491 C.3       1 <0>         0.0556
     14 C10        -5.3669   -5.3588   -2.4387 C.3       1 <0>        -0.1352
     15 C11        -7.0386   -6.5925   -3.8573 C.2       1 <0>         0.4651
     16 O2         -8.0934   -6.1358   -4.2297 O.2       1 <0>        -0.4726
     17 O3         -6.2895   -7.3233   -4.6978 O.3       1 <0>        -0.3476
     18 C12        -6.8006   -7.5210   -6.0175 C.3       1 <0>         0.0594
     19 C13        -5.8166   -8.3713   -6.8235 C.3       1 <0>        -0.1524
     20 Cl1        -6.3658   -2.8102    1.4955 Cl        1 <0>         0.0253
     21 H1          1.0039    1.9031    0.0027 H         1 <0>         0.0556
     22 H2         -0.5459    1.8868   -0.8726 H         1 <0>         0.0537
     23 H3         -0.5289    1.8773    0.9072 H         1 <0>         0.0566
     24 H4          0.5123   -0.3556   -0.8948 H         1 <0>         0.0619
     25 H5          0.5293   -0.3651    0.8851 H         1 <0>         0.0658
     26 H6         -1.9435   -0.1821    0.9097 H         1 <0>         0.0807
     27 H7         -1.9605   -0.1726   -0.8702 H         1 <0>         0.0646
     28 H8         -0.9024   -2.4150   -0.8923 H         1 <0>         0.0868
     29 H9         -0.8854   -2.4246    0.8875 H         1 <0>         0.1024
     30 H10        -6.3096   -7.2780   -1.9523 H         1 <0>         0.1338
     31 H11        -5.3720   -4.7297   -3.3288 H         1 <0>         0.1130
     32 H12        -4.4245   -5.8996   -2.3512 H         1 <0>         0.1202
     33 H13        -7.7618   -8.0321   -5.9621 H         1 <0>         0.0726
     34 H14        -6.9303   -6.5550   -6.5054 H         1 <0>         0.0710
     35 H15        -5.6868   -9.3374   -6.3356 H         1 <0>         0.0688
     36 H16        -6.2065   -8.5221   -7.8302 H         1 <0>         0.0836
     37 H17        -4.8554   -7.8603   -6.8789 H         1 <0>         0.0675
     38 H18        -2.8916   -3.8298   -1.6463 H         1 <0>         0.4299
@<TRIPOS>BOND
     1    1    2 1
     2    1   21 1
     3    1   22 1
     4    1   23 1
     5    2    3 1
     6    2   24 1
     7    2   25 1
     8    3    4 1
     9    3   26 1
    10    3   27 1
    11    4    5 1
    12    4   28 1
    13    4   29 1
    14    5    9 1
    15    5    6 2
    16    6    7 1
    17    7    8 2
    18    7   20 1
    19    8    9 1
    20    8   10 1
    21    9   38 1
    22   10   14 1
    23   10   11 2
    24   11   12 1
    25   12   13 1
    26   13   14 1
    27   13   15 1
    28   13   30 1
    29   14   31 1
    30   14   32 1
    31   15   16 2
    32   15   17 1
    33   17   18 1
    34   18   19 1
    35   18   33 1
    36   18   34 1
    37   19   35 1
    38   19   36 1
    39   19   37 1
@<TRIPOS>MOLECULE
CHEMBL330852__1
   38    39     0     0     0
SMALL
USER_CHARGES

@<TRIPOS>ATOM
      1 C1         -0.0187    1.5258    0.0104 C.3       1 <0>        -0.1547
      2 C2          0.0021   -0.0041    0.0020 C.3       1 <0>        -0.1243
      3 C3         -1.4333   -0.5336    0.0129 C.3       1 <0>        -0.1138
      4 C4         -1.4126   -2.0635    0.0045 C.3       1 <0>        -0.0399
      5 C5         -2.8264   -2.5851    0.0152 C.2       1 <0>         0.2715
      6 N1         -3.7420   -2.2745    0.8949 N.2       1 <0>        -0.4740
      7 C6         -4.8787   -2.9143    0.6059 C.2       1 <0>         0.1250
      8 C7         -4.6618   -3.6656   -0.5152 C.2       1 <0>         0.0204
      9 N2         -3.3502   -3.4421   -0.8845 N.pl3     1 <0>        -0.5466
     10 C8         -5.6313   -4.5330   -1.1941 C.2       1 <0>         0.1516
     11 N3         -6.8617   -4.7212   -0.8374 N.2       1 <0>        -0.2437
     12 O1         -7.5468   -5.6204   -1.6866 O.3       1 <0>        -0.1570
     13 C9         -6.7922   -5.7253   -2.9109 C.3       1 <0>         0.0554
     14 C10        -5.3669   -5.3588   -2.4387 C.3       1 <0>        -0.1355
     15 C11        -6.8397   -7.1300   -3.4547 C.2       1 <0>         0.4655
     16 O2         -7.4035   -7.9995   -2.8336 O.2       1 <0>        -0.4724
     17 O3         -6.2555   -7.4150   -4.6291 O.3       1 <0>        -0.3477
     18 C12        -6.3394   -8.7671   -5.0841 C.3       1 <0>         0.0594
     19 C13        -5.6216   -8.8980   -6.4289 C.3       1 <0>        -0.1524
     20 Cl1        -6.3658   -2.8102    1.4955 Cl        1 <0>         0.0254
     21 H1          1.0039    1.9031    0.0027 H         1 <0>         0.0556
     22 H2         -0.5459    1.8868   -0.8726 H         1 <0>         0.0538
     23 H3         -0.5289    1.8773    0.9072 H         1 <0>         0.0566
     24 H4          0.5123   -0.3556   -0.8948 H         1 <0>         0.0620
     25 H5          0.5293   -0.3651    0.8851 H         1 <0>         0.0657
     26 H6         -1.9435   -0.1821    0.9097 H         1 <0>         0.0807
     27 H7         -1.9605   -0.1726   -0.8702 H         1 <0>         0.0647
     28 H8         -0.9024   -2.4150   -0.8923 H         1 <0>         0.0869
     29 H9         -0.8854   -2.4246    0.8875 H         1 <0>         0.1022
     30 H10        -7.1492   -5.0097   -3.6515 H         1 <0>         0.1329
     31 H11        -4.8486   -4.7668   -3.1930 H         1 <0>         0.1204
     32 H12        -4.8002   -6.2571   -2.1938 H         1 <0>         0.1126
     33 H13        -5.8678   -9.4258   -4.3549 H         1 <0>         0.0711
     34 H14        -7.3863   -9.0464   -5.2023 H         1 <0>         0.0726
     35 H15        -4.5747   -8.6188   -6.3107 H         1 <0>         0.0675
     36 H16        -5.6856   -9.9293   -6.7760 H         1 <0>         0.0836
     37 H17        -6.0933   -8.2394   -7.1582 H         1 <0>         0.0688
     38 H18        -2.8916   -3.8298   -1.6463 H         1 <0>         0.4299
@<TRIPOS>BOND
     1    1    2 1
     2    1   21 1
     3    1   22 1
     4    1   23 1
     5    2    3 1
     6    2   24 1
     7    2   25 1
     8    3    4 1
     9    3   26 1
    10    3   27 1
    11    4    5 1
    12    4   28 1
    13    4   29 1
    14    5    9 1
    15    5    6 2
    16    6    7 1
    17    7    8 2
    18    7   20 1
    19    8    9 1
    20    8   10 1
    21    9   38 1
    22   10   14 1
    23   10   11 2
    24   11   12 1
    25   12   13 1
    26   13   14 1
    27   13   15 1
    28   13   30 1
    29   14   31 1
    30   14   32 1
    31   15   16 2
    32   15   17 1
    33   17   18 1
    34   18   19 1
    35   18   33 1
    36   18   34 1
    37   19   35 1
    38   19   36 1
    39   19   37 1
@<TRIPOS>MOLECULE
CHEMBL178675
   51    54     0     0     0
SMALL
USER_CHARGES

@<TRIPOS>ATOM
      1 C1          0.1275    1.5618    0.1295 C.3       1 <0>        -0.0997
      2 C2          0.1139    0.0557    0.0788 C.2       1 <0>         0.1120
      3 C3          0.0588   -0.7029   -1.0756 C.2       1 <0>        -0.2080
      4 C4          0.0673   -2.1126   -0.6397 C.ar      1 <0>        -0.0937
      5 C5          0.0293   -3.3359   -1.3110 C.ar      1 <0>         0.1906
      6 C6          0.0515   -4.5118   -0.5850 C.ar      1 <0>        -0.2341
      7 C7          0.1111   -4.4829    0.8032 C.ar      1 <0>        -0.0294
      8 C8          0.1487   -3.2792    1.4747 C.ar      1 <0>        -0.1668
      9 C9          0.1274   -2.0819    0.7598 C.ar      1 <0>         0.1523
     10 N1          0.1592   -0.7575    1.1500 N.pl3     1 <0>        -0.4565
     11 C10         0.2298   -0.3004    2.5401 C.3       1 <0>         0.1461
     12 C11         1.6642   -0.0138    2.9025 C.ar      1 <0>        -0.1228
     13 C12         2.4211   -0.9782    3.5415 C.ar      1 <0>        -0.0717
     14 C13         3.7368   -0.7167    3.8739 C.ar      1 <0>        -0.1532
     15 C14         4.2968    0.5118    3.5666 C.ar      1 <0>         0.1066
     16 C15         3.5378    1.4768    2.9266 C.ar      1 <0>        -0.1534
     17 C16         2.2239    1.2112    2.5905 C.ar      1 <0>        -0.0736
     18 F1          5.5828    0.7687    3.8915 F         1 <0>        -0.1388
     19 C17         0.2100   -3.5251    2.9674 C.3       1 <0>        -0.0691
     20 C18        -0.2343   -4.9913    3.1533 C.3       1 <0>        -0.1173
     21 C19         0.1451   -5.6247    1.7982 C.3       1 <0>        -0.0794
     22 O1         -0.0296   -3.3704   -2.6680 O.3       1 <0>        -0.2754
     23 C20        -0.0656   -4.6596   -3.2832 C.3       1 <0>        -0.0072
     24 C21        -0.1291   -4.5002   -4.7804 C.2       1 <0>         0.5023
     25 O2         -0.1422   -3.3858   -5.2748 O.co2     1 <0>        -0.6684
     26 O3         -0.1673   -5.4856   -5.4974 O.co2     1 <0>        -0.6882
     27 C22         0.0030   -0.2084   -2.4502 C.2       1 <0>         0.4447
     28 O4         -1.0663    0.0881   -2.9466 O.2       1 <0>        -0.4101
     29 C23         1.2580   -0.0677   -3.2437 C.2       1 <0>         0.4971
     30 O5          2.3139   -0.4492   -2.7820 O.2       1 <0>        -0.5063
     31 N2          1.2198    0.4831   -4.4732 N.am      1 <0>        -0.8256
     32 H1          1.1578    1.9144    0.1767 H         1 <0>         0.0830
     33 H2         -0.3521    1.9598   -0.7647 H         1 <0>         0.0844
     34 H3         -0.4133    1.9005    1.0132 H         1 <0>         0.0759
     35 H4          0.0220   -5.4604   -1.1004 H         1 <0>         0.1295
     36 H5         -0.3622    0.6076    2.6545 H         1 <0>         0.0998
     37 H6         -0.1632   -1.0757    3.1979 H         1 <0>         0.1049
     38 H7          1.9839   -1.9362    3.7814 H         1 <0>         0.1376
     39 H8          4.3278   -1.4700    4.3734 H         1 <0>         0.1375
     40 H9          3.9736    2.4355    2.6867 H         1 <0>         0.1377
     41 H10         1.6330    1.9622    2.0873 H         1 <0>         0.1353
     42 H11         1.2283   -3.3893    3.3316 H         1 <0>         0.0706
     43 H12        -0.4720   -2.8540    3.4896 H         1 <0>         0.0637
     44 H13         0.3147   -5.4624    3.9687 H         1 <0>         0.0738
     45 H14        -1.3094   -5.0522    3.3223 H         1 <0>         0.0719
     46 H15        -0.5810   -6.3892    1.5215 H         1 <0>         0.0756
     47 H16         1.1461   -6.0532    1.8480 H         1 <0>         0.0802
     48 H17         0.8327   -5.2156   -3.0148 H         1 <0>         0.0604
     49 H18        -0.9456   -5.2025   -2.9380 H         1 <0>         0.0604
     50 H19         0.3761    0.7879   -4.8420 H         1 <0>         0.4091
     51 H20         2.0360    0.5746   -4.9892 H         1 <0>         0.4057
@<TRIPOS>BOND
     1    1    2 1
     2    1   32 1
     3    1   33 1
     4    1   34 1
     5    2   10 1
     6    2    3 2
     7    3    4 1
     8    3   27 1
     9    4    9 ar
    10    4    5 ar
    11    5    6 ar
    12    5   22 1
    13    6    7 ar
    14    6   35 1
    15    7   21 1
    16    7    8 ar
    17    8    9 ar
    18    8   19 1
    19    9   10 1
    20   10   11 1
    21   11   12 1
    22   11   36 1
    23   11   37 1
    24   12   17 ar
    25   12   13 ar
    26   13   14 ar
    27   13   38 1
    28   14   15 ar
    29   14   39 1
    30   15   16 ar
    31   15   18 1
    32   16   17 ar
    33   16   40 1
    34   17   41 1
    35   19   20 1
    36   19   42 1
    37   19   43 1
    38   20   21 1
    39   20   44 1
    40   20   45 1
    41   21   46 1
    42   21   47 1
    43   22   23 1
    44   23   24 1
    45   23   48 1
    46   23   49 1
    47   24   25 2
    48   24   26 1
    49   27   28 2
    50   27   29 1
    51   29   30 2
    52   29   31 am
    53   31   50 1
    54   31   51 1
@<TRIPOS>MOLECULE
CHEMBL434630
   72    74     0     0     0
SMALL
USER_CHARGES

@<TRIPOS>ATOM
      1 C1         -0.0167    1.3781    0.0096 C.ar      1 <0>        -0.1291
      2 C2          1.1709    2.0855    0.0021 C.ar      1 <0>        -0.1186
      3 C3          2.3773    1.4107   -0.0130 C.ar      1 <0>        -0.1186
      4 C4          2.3960    0.0285   -0.0201 C.ar      1 <0>        -0.0774
      5 C5          1.2084   -0.6789   -0.0117 C.ar      1 <0>        -0.1194
      6 C6          0.0021   -0.0041    0.0020 C.ar      1 <0>        -0.1195
      7 C7          3.7112   -0.7071   -0.0376 C.3       1 <0>        -0.0845
      8 C8          4.1714   -0.9633    1.3989 C.3       1 <0>        -0.1116
      9 C9          5.5066   -1.7102    1.3812 C.3       1 <0>        -0.1210
     10 C10         5.9667   -1.9663    2.8177 C.3       1 <0>        -0.1180
     11 C11         7.3020   -2.7132    2.8000 C.3       1 <0>        -0.1055
     12 C12         7.7621   -2.9694    4.2365 C.3       1 <0>        -0.1386
     13 C13         9.0773   -3.7050    4.2190 C.2       1 <0>         0.5105
     14 O1          9.5955   -3.9958    3.1617 O.2       1 <0>        -0.5227
     15 N1          9.6776   -4.0398    5.3783 N.am      1 <0>        -0.7250
     16 C14        10.9561   -4.7549    5.3613 C.3       1 <0>         0.1604
     17 H1         10.9766   -5.4425    4.5158 H         1 <0>         0.0949
     18 C15        12.1013   -3.7491    5.2286 C.3       1 <0>        -0.0963
     19 C16        12.0109   -3.0495    3.8710 C.3       1 <0>        -0.1678
     20 C17        13.1389   -2.0588    3.7403 C.2       1 <0>         0.4865
     21 O2         13.9409   -1.9247    4.6488 O.co2     1 <0>        -0.7058
     22 O3         13.2496   -1.3913    2.7260 O.co2     1 <0>        -0.7068
     23 C18        11.1172   -5.5425    6.6632 C.3       1 <0>        -0.1131
     24 S1          9.8462   -6.8338    6.7500 S.3       1 <0>        -0.1099
     25 C19        10.1620   -7.6403    8.2844 C.ar      1 <0>        -0.0826
     26 C20        11.2055   -7.2105    9.0954 C.ar      1 <0>        -0.1305
     27 C21        11.4501   -7.8450   10.2971 C.ar      1 <0>        -0.0923
     28 C22        10.6582   -8.9070   10.6941 C.ar      1 <0>        -0.0869
     29 C23         9.6191   -9.3378    9.8894 C.ar      1 <0>        -0.0958
     30 C24         9.3647   -8.7042    8.6892 C.ar      1 <0>        -0.0996
     31 C25        10.9284   -9.5969   12.0064 C.3       1 <0>        -0.0407
     32 C26        10.1376   -8.9250   13.0993 C.ar      1 <0>        -0.0745
     33 C27        10.6872   -7.8679   13.8002 C.ar      1 <0>        -0.1143
     34 C28         9.9619   -7.2516   14.8026 C.ar      1 <0>        -0.1179
     35 C29         8.6867   -7.6921   15.1039 C.ar      1 <0>        -0.1254
     36 C30         8.1367   -8.7486   14.4023 C.ar      1 <0>        -0.1189
     37 C31         8.8604   -9.3622   13.3970 C.ar      1 <0>        -0.1150
     38 H2         -0.9591    1.9053    0.0259 H         1 <0>         0.1190
     39 H3          1.1563    3.1654    0.0076 H         1 <0>         0.1204
     40 H4          3.3051    1.9634   -0.0196 H         1 <0>         0.1218
     41 H5          1.2231   -1.7588   -0.0176 H         1 <0>         0.1206
     42 H6         -0.9258   -0.5567    0.0082 H         1 <0>         0.1198
     43 H7          3.5884   -1.6586   -0.5549 H         1 <0>         0.0721
     44 H8          4.4573   -0.1052   -0.5563 H         1 <0>         0.0734
     45 H9          4.2941   -0.0118    1.9163 H         1 <0>         0.0627
     46 H10         3.4252   -1.5652    1.9176 H         1 <0>         0.0614
     47 H11         5.3838   -2.6617    0.8639 H         1 <0>         0.0627
     48 H12         6.2527   -1.1082    0.8625 H         1 <0>         0.0653
     49 H13         6.0895   -1.0148    3.3350 H         1 <0>         0.0615
     50 H14         5.2206   -2.5682    3.3364 H         1 <0>         0.0594
     51 H15         7.1792   -3.6647    2.2826 H         1 <0>         0.0684
     52 H16         8.0481   -2.1113    2.2813 H         1 <0>         0.0733
     53 H17         7.8849   -2.0178    4.7538 H         1 <0>         0.0903
     54 H18         7.0160   -3.5713    4.7551 H         1 <0>         0.0886
     55 H19         9.2631   -3.8072    6.2239 H         1 <0>         0.3966
     56 H20        12.0283   -3.0082    6.0248 H         1 <0>         0.0629
     57 H21        13.0547   -4.2719    5.3051 H         1 <0>         0.0695
     58 H22        12.0839   -3.7904    3.0748 H         1 <0>         0.0600
     59 H23        11.0575   -2.5267    3.7945 H         1 <0>         0.0588
     60 H24        12.1050   -6.0026    6.6895 H         1 <0>         0.1038
     61 H25        11.0080   -4.8675    7.5120 H         1 <0>         0.0931
     62 H26        11.8246   -6.3814    8.7859 H         1 <0>         0.1255
     63 H27        12.2611   -7.5117   10.9277 H         1 <0>         0.1233
     64 H28         9.0029  -10.1677   10.2024 H         1 <0>         0.1238
     65 H29         8.5499   -9.0377    8.0637 H         1 <0>         0.1261
     66 H30        10.6322  -10.6434   11.9345 H         1 <0>         0.0820
     67 H31        11.9919   -9.5353   12.2371 H         1 <0>         0.0823
     68 H32        11.6835   -7.5237   13.5648 H         1 <0>         0.1209
     69 H33        10.3916   -6.4262   15.3507 H         1 <0>         0.1213
     70 H34         8.1203   -7.2111   15.8875 H         1 <0>         0.1199
     71 H35         7.1406   -9.0930   14.6379 H         1 <0>         0.1206
     72 H36         8.4293  -10.1852   12.8464 H         1 <0>         0.1202
@<TRIPOS>BOND
     1    1    6 ar
     2    1    2 ar
     3    1   38 1
     4    2    3 ar
     5    2   39 1
     6    3    4 ar
     7    3   40 1
     8    4    5 ar
     9    4    7 1
    10    5    6 ar
    11    5   41 1
    12    6   42 1
    13    7    8 1
    14    7   43 1
    15    7   44 1
    16    8    9 1
    17    8   45 1
    18    8   46 1
    19    9   10 1
    20    9   47 1
    21    9   48 1
    22   10   11 1
    23   10   49 1
    24   10   50 1
    25   11   12 1
    26   11   51 1
    27   11   52 1
    28   12   13 1
    29   12   53 1
    30   12   54 1
    31   13   14 2
    32   13   15 am
    33   15   16 1
    34   15   55 1
    35   16   17 1
    36   16   18 1
    37   16   23 1
    38   18   19 1
    39   18   56 1
    40   18   57 1
    41   19   20 1
    42   19   58 1
    43   19   59 1
    44   20   21 2
    45   20   22 1
    46   23   24 1
    47   23   60 1
    48   23   61 1
    49   24   25 1
    50   25   30 ar
    51   25   26 ar
    52   26   27 ar
    53   26   62 1
    54   27   28 ar
    55   27   63 1
    56   28   29 ar
    57   28   31 1
    58   29   30 ar
    59   29   64 1
    60   30   65 1
    61   31   32 1
    62   31   66 1
    63   31   67 1
    64   32   37 ar
    65   32   33 ar
    66   33   34 ar
    67   33   68 1
    68   34   35 ar
    69   34   69 1
    70   35   36 ar
    71   35   70 1
    72   36   37 ar
    73   36   71 1
    74   37   72 1
@<TRIPOS>MOLECULE
CHEMBL435488
   57    60     0     0     0
SMALL
USER_CHARGES

@<TRIPOS>ATOM
      1 C1          0.5378    1.7395   -1.1439 C.3       1 <0>        -0.1501
      2 C2          0.6492    0.2391   -0.8659 C.3       1 <0>        -0.0692
      3 C3         -0.6359   -0.2551   -0.2534 C.2       1 <0>         0.1131
      4 C4         -0.9124   -0.2901    1.1008 C.2       1 <0>        -0.2050
      5 C5         -2.2743   -0.8438    1.2254 C.ar      1 <0>        -0.0949
      6 C6         -3.1135   -1.1266    2.3043 C.ar      1 <0>         0.1856
      7 C7         -4.3644   -1.6596    2.0661 C.ar      1 <0>        -0.2489
      8 C8         -4.7970   -1.9154    0.7661 C.ar      1 <0>        -0.0139
      9 C9         -3.9801   -1.6349   -0.3019 C.ar      1 <0>        -0.1318
     10 C10        -2.7077   -1.0979   -0.0809 C.ar      1 <0>         0.1366
     11 N1         -1.6933   -0.7248   -0.9409 N.pl3     1 <0>        -0.4516
     12 C11        -1.7583   -0.8292   -2.4007 C.3       1 <0>         0.1392
     13 C12        -1.3440   -2.2149   -2.8242 C.ar      1 <0>        -0.1129
     14 C13        -0.0713   -2.6731   -2.5394 C.ar      1 <0>        -0.0989
     15 C14         0.3086   -3.9442   -2.9278 C.ar      1 <0>        -0.1166
     16 C15        -0.5843   -4.7572   -3.6006 C.ar      1 <0>        -0.1126
     17 C16        -1.8573   -4.2993   -3.8846 C.ar      1 <0>        -0.1199
     18 C17        -2.2387   -3.0298   -3.4924 C.ar      1 <0>        -0.1085
     19 C18        -4.3983   -1.8736   -1.7294 C.3       1 <0>        -0.0999
     20 C19        -5.5859   -2.8315   -1.7902 C.3       1 <0>        -0.1156
     21 C20        -6.6691   -2.3182   -0.8341 C.3       1 <0>        -0.1171
     22 C21        -6.1738   -2.5057    0.5981 C.3       1 <0>        -0.0771
     23 O1         -2.7032   -0.8801    3.5759 O.3       1 <0>        -0.2774
     24 C22        -3.6193   -1.1965    4.6259 C.3       1 <0>        -0.0063
     25 C23        -2.9957   -0.8582    5.9555 C.2       1 <0>         0.5022
     26 O2         -1.8710   -0.3896    5.9997 O.co2     1 <0>        -0.6687
     27 O3         -3.6159   -1.0531    6.9870 O.co2     1 <0>        -0.6887
     28 C24        -0.0331    0.1347    2.1888 C.2       1 <0>         0.4424
     29 O4         -0.0740    1.2812    2.5910 O.2       1 <0>        -0.4056
     30 C25         0.9141   -0.8385    2.8053 C.2       1 <0>         0.4957
     31 O5          0.9179   -1.9962    2.4403 O.2       1 <0>        -0.5091
     32 N2          1.7658   -0.4325    3.7677 N.am      1 <0>        -0.8254
     33 H1          1.4674    2.0970   -1.5869 H         1 <0>         0.0646
     34 H2         -0.2866    1.9211   -1.8334 H         1 <0>         0.0560
     35 H3          0.3534    2.2694   -0.2094 H         1 <0>         0.0668
     36 H4          0.8337   -0.2908   -1.8004 H         1 <0>         0.0804
     37 H5          1.4737    0.0576   -0.1765 H         1 <0>         0.0868
     38 H6         -5.0162   -1.8817    2.8981 H         1 <0>         0.1288
     39 H7         -2.7782   -0.6372   -2.7337 H         1 <0>         0.1042
     40 H8         -1.0862   -0.0966   -2.8476 H         1 <0>         0.1014
     41 H9          0.6263   -2.0380   -2.0138 H         1 <0>         0.1242
     42 H10         1.3032   -4.3020   -2.7060 H         1 <0>         0.1239
     43 H11        -0.2872   -5.7500   -3.9047 H         1 <0>         0.1222
     44 H12        -2.5548   -4.9343   -4.4105 H         1 <0>         0.1238
     45 H13        -3.2344   -2.6734   -3.7109 H         1 <0>         0.1335
     46 H14        -4.6791   -0.9240   -2.1849 H         1 <0>         0.0626
     47 H15        -3.5621   -2.3026   -2.2816 H         1 <0>         0.0910
     48 H16        -5.9789   -2.8652   -2.8064 H         1 <0>         0.0619
     49 H17        -5.2693   -3.8289   -1.4851 H         1 <0>         0.0650
     50 H18        -6.8547   -1.2608   -1.0231 H         1 <0>         0.0642
     51 H19        -7.5882   -2.8851   -0.9820 H         1 <0>         0.0641
     52 H20        -6.1389   -3.5703    0.8296 H         1 <0>         0.0756
     53 H21        -6.8625   -2.0120    1.2838 H         1 <0>         0.0749
     54 H22        -4.5343   -0.6185    4.4962 H         1 <0>         0.0596
     55 H23        -3.8541   -2.2604    4.5950 H         1 <0>         0.0594
     56 H24         1.7628    0.4926    4.0594 H         1 <0>         0.4103
     57 H25         2.3818   -1.0655    4.1687 H         1 <0>         0.4053
@<TRIPOS>BOND
     1    1    2 1
     2    1   33 1
     3    1   34 1
     4    1   35 1
     5    2    3 1
     6    2   36 1
     7    2   37 1
     8    3   11 1
     9    3    4 2
    10    4    5 1
    11    4   28 1
    12    5   10 ar
    13    5    6 ar
    14    6    7 ar
    15    6   23 1
    16    7    8 ar
    17    7   38 1
    18    8   22 1
    19    8    9 ar
    20    9   10 ar
    21    9   19 1
    22   10   11 1
    23   11   12 1
    24   12   13 1
    25   12   39 1
    26   12   40 1
    27   13   18 ar
    28   13   14 ar
    29   14   15 ar
    30   14   41 1
    31   15   16 ar
    32   15   42 1
    33   16   17 ar
    34   16   43 1
    35   17   18 ar
    36   17   44 1
    37   18   45 1
    38   19   20 1
    39   19   46 1
    40   19   47 1
    41   20   21 1
    42   20   48 1
    43   20   49 1
    44   21   22 1
    45   21   50 1
    46   21   51 1
    47   22   52 1
    48   22   53 1
    49   23   24 1
    50   24   25 1
    51   24   54 1
    52   24   55 1
    53   25   26 2
    54   25   27 1
    55   28   29 2
    56   28   30 1
    57   30   31 2
    58   30   32 am
    59   32   56 1
    60   32   57 1
@<TRIPOS>MOLECULE
CHEMBL87837
   72    74     0     0     0
SMALL
USER_CHARGES

@<TRIPOS>ATOM
      1 C1          3.3707   -4.1289    6.5190 C.3       1 <0>        -0.1533
      2 C2          2.7043   -4.5124    5.1962 C.3       1 <0>        -0.1259
      3 C3          1.4135   -5.2831    5.4800 C.3       1 <0>        -0.1214
      4 C4          0.7472   -5.6666    4.1572 C.3       1 <0>        -0.1207
      5 C5         -0.5437   -6.4374    4.4410 C.3       1 <0>        -0.1207
      6 C6         -1.2100   -6.8209    3.1182 C.3       1 <0>        -0.1200
      7 C7         -2.5008   -7.5917    3.4020 C.3       1 <0>        -0.1204
      8 C8         -3.1672   -7.9752    2.0792 C.3       1 <0>        -0.1190
      9 C9         -4.4580   -8.7460    2.3630 C.3       1 <0>        -0.1195
     10 C10        -5.1244   -9.1295    1.0402 C.3       1 <0>        -0.1074
     11 C11        -6.4152   -9.9002    1.3240 C.3       1 <0>        -0.1579
     12 C12        -7.0715  -10.2780    0.0211 C.2       1 <0>         0.4644
     13 O1         -6.6076   -9.8843   -1.0281 O.2       1 <0>        -0.4568
     14 C13        -8.2729  -11.1227    0.0219 C.2       1 <0>        -0.2453
     15 C14        -8.3192  -12.5905    0.0689 C.ar      1 <0>        -0.0757
     16 C15        -7.3422  -13.5863    0.1224 C.ar      1 <0>        -0.0785
     17 C16        -7.7135  -14.9002    0.1569 C.ar      1 <0>        -0.1491
     18 C17        -9.0570  -15.2537    0.1392 C.ar      1 <0>        -0.1149
     19 C18       -10.0369  -14.2891    0.0862 C.ar      1 <0>        -0.1191
     20 C19        -9.6822  -12.9412    0.0507 C.ar      1 <0>         0.0850
     21 N1        -10.4176  -11.7827   -0.0033 N.pl3     1 <0>        -0.4423
     22 C20        -9.5937  -10.6943   -0.0157 C.2       1 <0>         0.0961
     23 C21       -10.0353   -9.2885   -0.0647 C.2       1 <0>         0.5385
     24 O2        -11.2266   -9.0191    0.0005 O.co2     1 <0>        -0.6637
     25 O3         -9.2103   -8.3917   -0.1705 O.co2     1 <0>        -0.6534
     26 C22       -11.8810  -11.7230   -0.0378 C.3       1 <0>         0.1131
     27 C23       -12.4226  -11.6556    1.3915 C.3       1 <0>         0.0568
     28 O4        -13.8500  -11.5974    1.3577 O.3       1 <0>        -0.3045
     29 C24       -14.4925  -11.5332    2.5515 C.ar      1 <0>         0.0979
     30 C25       -13.7601  -11.5206    3.7327 C.ar      1 <0>        -0.1967
     31 C26       -14.4070  -11.4551    4.9461 C.ar      1 <0>        -0.0534
     32 C27       -15.8041  -11.4011    4.9904 C.ar      1 <0>        -0.1481
     33 C28       -16.5388  -11.4139    3.7999 C.ar      1 <0>        -0.0821
     34 C29       -15.8830  -11.4743    2.5892 C.ar      1 <0>         0.0464
     35 F1        -16.5902  -11.4817    1.4381 F         1 <0>        -0.1429
     36 C30       -16.4995  -11.3315    6.2864 C.2       1 <0>         0.5274
     37 O5        -15.8554  -11.3208    7.3264 O.co2     1 <0>        -0.6877
     38 O6        -17.7214  -11.2843    6.3232 O.co2     1 <0>        -0.6895
     39 H1          4.2903   -3.5798    6.3168 H         1 <0>         0.0514
     40 H2          2.6932   -3.5020    7.0988 H         1 <0>         0.0532
     41 H3          3.6033   -5.0316    7.0838 H         1 <0>         0.0527
     42 H4          2.4718   -3.6096    4.6314 H         1 <0>         0.0601
     43 H5          3.3818   -5.1392    4.6164 H         1 <0>         0.0595
     44 H6          1.6461   -6.1859    6.0448 H         1 <0>         0.0601
     45 H7          0.7360   -4.6563    6.0598 H         1 <0>         0.0608
     46 H8          0.5146   -4.7639    3.5924 H         1 <0>         0.0603
     47 H9          1.4247   -6.2935    3.5774 H         1 <0>         0.0595
     48 H10        -0.3111   -7.3402    5.0058 H         1 <0>         0.0597
     49 H11        -1.2212   -5.8105    5.0208 H         1 <0>         0.0608
     50 H12        -1.4426   -5.9181    2.5534 H         1 <0>         0.0605
     51 H13        -0.5325   -7.4478    2.5384 H         1 <0>         0.0590
     52 H14        -2.2683   -8.4945    3.9668 H         1 <0>         0.0592
     53 H15        -3.1783   -6.9648    3.9818 H         1 <0>         0.0613
     54 H16        -3.3998   -7.0724    1.5144 H         1 <0>         0.0618
     55 H17        -2.4897   -8.6021    1.4994 H         1 <0>         0.0588
     56 H18        -4.2254   -9.6487    2.9278 H         1 <0>         0.0590
     57 H19        -5.1355   -8.1191    2.9428 H         1 <0>         0.0633
     58 H20        -5.3570   -8.2267    0.4754 H         1 <0>         0.0708
     59 H21        -4.4469   -9.7563    0.4605 H         1 <0>         0.0603
     60 H22        -6.1826  -10.8030    1.8889 H         1 <0>         0.0869
     61 H23        -7.0927   -9.2734    1.9038 H         1 <0>         0.1005
     62 H24        -6.2960  -13.3186    0.1361 H         1 <0>         0.1150
     63 H25        -6.9572  -15.6700    0.1979 H         1 <0>         0.1159
     64 H26        -9.3352  -16.2969    0.1670 H         1 <0>         0.1190
     65 H27       -11.0782  -14.5754    0.0729 H         1 <0>         0.1176
     66 H28       -12.1956  -10.8361   -0.5878 H         1 <0>         0.1282
     67 H29       -12.2694  -12.6137   -0.5319 H         1 <0>         0.0847
     68 H30       -12.1080  -12.5425    1.9415 H         1 <0>         0.0571
     69 H31       -12.0343  -10.7650    1.8855 H         1 <0>         0.0785
     70 H32       -12.6815  -11.5627    3.6986 H         1 <0>         0.1302
     71 H33       -13.8363  -11.4458    5.8630 H         1 <0>         0.1350
     72 H34       -17.6176  -11.3725    3.8293 H         1 <0>         0.1440
@<TRIPOS>BOND
     1    1    2 1
     2    1   39 1
     3    1   40 1
     4    1   41 1
     5    2    3 1
     6    2   42 1
     7    2   43 1
     8    3    4 1
     9    3   44 1
    10    3   45 1
    11    4    5 1
    12    4   46 1
    13    4   47 1
    14    5    6 1
    15    5   48 1
    16    5   49 1
    17    6    7 1
    18    6   50 1
    19    6   51 1
    20    7    8 1
    21    7   52 1
    22    7   53 1
    23    8    9 1
    24    8   54 1
    25    8   55 1
    26    9   10 1
    27    9   56 1
    28    9   57 1
    29   10   11 1
    30   10   58 1
    31   10   59 1
    32   11   12 1
    33   11   60 1
    34   11   61 1
    35   12   13 2
    36   12   14 1
    37   14   22 2
    38   14   15 1
    39   15   20 ar
    40   15   16 ar
    41   16   17 ar
    42   16   62 1
    43   17   18 ar
    44   17   63 1
    45   18   19 ar
    46   18   64 1
    47   19   20 ar
    48   19   65 1
    49   20   21 1
    50   21   22 1
    51   21   26 1
    52   22   23 1
    53   23   24 2
    54   23   25 1
    55   26   27 1
    56   26   66 1
    57   26   67 1
    58   27   28 1
    59   27   68 1
    60   27   69 1
    61   28   29 1
    62   29   34 ar
    63   29   30 ar
    64   30   31 ar
    65   30   70 1
    66   31   32 ar
    67   31   71 1
    68   32   33 ar
    69   32   36 1
    70   33   34 ar
    71   33   72 1
    72   34   35 1
    73   36   37 2
    74   36   38 1
@<TRIPOS>MOLECULE
CHEMBL151141
   69    71     0     0     0
SMALL
USER_CHARGES

@<TRIPOS>ATOM
      1 C1         -2.4002   -2.5374    3.4760 C.ar      1 <0>        -0.1292
      2 C2         -1.5560   -2.2717    2.4141 C.ar      1 <0>        -0.1188
      3 C3         -0.3548   -2.9463    2.3005 C.ar      1 <0>        -0.1187
      4 C4          0.0024   -3.8863    3.2491 C.ar      1 <0>        -0.0773
      5 C5         -0.8414   -4.1513    4.3115 C.ar      1 <0>        -0.1193
      6 C6         -2.0432   -3.4777    4.4243 C.ar      1 <0>        -0.1193
      7 C7          1.3115   -4.6224    3.1248 C.3       1 <0>        -0.0839
      8 C8          2.4063   -3.8432    3.8563 C.3       1 <0>        -0.1122
      9 C9          3.7353   -4.5906    3.7301 C.3       1 <0>        -0.1195
     10 C10         4.8301   -3.8113    4.4616 C.3       1 <0>        -0.1192
     11 C11         6.1592   -4.5587    4.3354 C.3       1 <0>        -0.1008
     12 C12         7.2540   -3.7795    5.0669 C.3       1 <0>        -0.1389
     13 C13         8.5630   -4.5156    4.9426 C.2       1 <0>         0.5214
     14 O1          8.6152   -5.5606    4.3292 O.2       1 <0>        -0.5320
     15 N1          9.6758   -4.0127    5.5129 N.am      1 <0>        -0.7059
     16 C14        10.9272   -4.7733    5.4731 C.3       1 <0>         0.1840
     17 H1         10.9420   -5.4021    4.5828 H         1 <0>         0.1047
     18 C15        12.1114   -3.8053    5.4336 C.3       1 <0>        -0.1903
     19 C16        12.0788   -3.0240    4.1454 C.2       1 <0>         0.4917
     20 O2         11.2530   -3.2933    3.2898 O.co2     1 <0>        -0.6808
     21 O3         12.8783   -2.1227    3.9587 O.co2     1 <0>        -0.7049
     22 C17        11.0291   -5.6532    6.7206 C.3       1 <0>        -0.1253
     23 S1          9.7098   -6.8979    6.6921 S.3       1 <0>        -0.0676
     24 C18         9.9602   -7.8185    8.1735 C.ar      1 <0>        -0.0924
     25 C19        10.9997   -7.4851    9.0335 C.ar      1 <0>        -0.1360
     26 C20        11.1929   -8.2088   10.1935 C.ar      1 <0>        -0.0929
     27 C21        10.3535   -9.2643   10.4999 C.ar      1 <0>        -0.0951
     28 C22         9.3183   -9.5993    9.6462 C.ar      1 <0>        -0.0950
     29 C23         9.1152   -8.8762    8.4875 C.ar      1 <0>        -0.1024
     30 C24        10.5677  -10.0517   11.7669 C.3       1 <0>        -0.0389
     31 C25         9.7770   -9.4261   12.8869 C.ar      1 <0>        -0.0726
     32 C26        10.3487   -8.4409   13.6701 C.ar      1 <0>        -0.1148
     33 C27         9.6234   -7.8670   14.6975 C.ar      1 <0>        -0.1185
     34 C28         8.3263   -8.2779   14.9413 C.ar      1 <0>        -0.1264
     35 C29         7.7543   -9.2625   14.1575 C.ar      1 <0>        -0.1188
     36 C30         8.4781   -9.8334   13.1274 C.ar      1 <0>        -0.1148
     37 H2         -3.3366   -2.0071    3.5671 H         1 <0>         0.1189
     38 H3         -1.8351   -1.5373    1.6730 H         1 <0>         0.1203
     39 H4          0.3045   -2.7392    1.4705 H         1 <0>         0.1214
     40 H5         -0.5625   -4.8860    5.0524 H         1 <0>         0.1207
     41 H6         -2.7027   -3.6851    5.2541 H         1 <0>         0.1198
     42 H7          1.2141   -5.6140    3.5668 H         1 <0>         0.0719
     43 H8          1.5758   -4.7184    2.0717 H         1 <0>         0.0726
     44 H9          2.5036   -2.8516    3.4143 H         1 <0>         0.0626
     45 H10         2.1420   -3.7472    4.9094 H         1 <0>         0.0617
     46 H11         3.6380   -5.5821    4.1721 H         1 <0>         0.0623
     47 H12         3.9996   -4.6866    2.6770 H         1 <0>         0.0636
     48 H13         4.9275   -2.8197    4.0196 H         1 <0>         0.0611
     49 H14         4.5659   -3.7153    5.5147 H         1 <0>         0.0593
     50 H15         6.0618   -5.5503    4.7774 H         1 <0>         0.0680
     51 H16         6.4234   -4.6547    3.2823 H         1 <0>         0.0697
     52 H17         7.3513   -2.7879    4.6249 H         1 <0>         0.0885
     53 H18         6.9897   -3.6835    6.1200 H         1 <0>         0.0851
     54 H19         9.6481   -3.1471    5.9498 H         1 <0>         0.3934
     55 H20        12.0471   -3.1180    6.2771 H         1 <0>         0.0628
     56 H21        13.0429   -4.3681    5.4938 H         1 <0>         0.0729
     57 H22        11.9985   -6.1515    6.7356 H         1 <0>         0.0914
     58 H23        10.9251   -5.0339    7.6115 H         1 <0>         0.0832
     59 H24        11.6558   -6.6611    8.7946 H         1 <0>         0.1217
     60 H25        12.0008   -7.9504   10.8621 H         1 <0>         0.1195
     61 H26         8.6649  -10.4245    9.8885 H         1 <0>         0.1215
     62 H27         8.3034   -9.1351    7.8239 H         1 <0>         0.1250
     63 H28        10.2351  -11.0788   11.6169 H         1 <0>         0.0808
     64 H29        11.6271  -10.0466   12.0231 H         1 <0>         0.0804
     65 H30        11.3621   -8.1198   13.4796 H         1 <0>         0.1202
     66 H31        10.0703   -7.0978   15.3099 H         1 <0>         0.1205
     67 H32         7.7599   -7.8301   15.7444 H         1 <0>         0.1193
     68 H33         6.7410   -9.5838   14.3482 H         1 <0>         0.1204
     69 H34         8.0299  -10.5999   12.5126 H         1 <0>         0.1204
@<TRIPOS>BOND
     1    1    6 ar
     2    1    2 ar
     3    1   37 1
     4    2    3 ar
     5    2   38 1
     6    3    4 ar
     7    3   39 1
     8    4    5 ar
     9    4    7 1
    10    5    6 ar
    11    5   40 1
    12    6   41 1
    13    7    8 1
    14    7   42 1
    15    7   43 1
    16    8    9 1
    17    8   44 1
    18    8   45 1
    19    9   10 1
    20    9   46 1
    21    9   47 1
    22   10   11 1
    23   10   48 1
    24   10   49 1
    25   11   12 1
    26   11   50 1
    27   11   51 1
    28   12   13 1
    29   12   52 1
    30   12   53 1
    31   13   14 2
    32   13   15 am
    33   15   16 1
    34   15   54 1
    35   16   17 1
    36   16   18 1
    37   16   22 1
    38   18   19 1
    39   18   55 1
    40   18   56 1
    41   19   20 2
    42   19   21 1
    43   22   23 1
    44   22   57 1
    45   22   58 1
    46   23   24 1
    47   24   29 ar
    48   24   25 ar
    49   25   26 ar
    50   25   59 1
    51   26   27 ar
    52   26   60 1
    53   27   28 ar
    54   27   30 1
    55   28   29 ar
    56   28   61 1
    57   29   62 1
    58   30   31 1
    59   30   63 1
    60   30   64 1
    61   31   36 ar
    62   31   32 ar
    63   32   33 ar
    64   32   65 1
    65   33   34 ar
    66   33   66 1
    67   34   35 ar
    68   34   67 1
    69   35   36 ar
    70   35   68 1
    71   36   69 1
@<TRIPOS>MOLECULE
CHEMBL178187
   55    58     0     0     0
SMALL
USER_CHARGES

@<TRIPOS>ATOM
      1 C1          0.1275    1.5617    0.1295 C.3       1 <0>        -0.1077
      2 C2          0.1138    0.0557    0.0788 C.2       1 <0>         0.1360
      3 C3          0.0588   -0.7029   -1.0756 C.2       1 <0>        -0.2268
      4 C4          0.0672   -2.1126   -0.6397 C.ar      1 <0>        -0.0783
      5 C5          0.0292   -3.3359   -1.3110 C.ar      1 <0>         0.1735
      6 C6          0.0515   -4.5118   -0.5850 C.ar      1 <0>        -0.2156
      7 C7          0.1111   -4.4829    0.8033 C.ar      1 <0>        -0.0380
      8 C8          0.1487   -3.2792    1.4747 C.ar      1 <0>        -0.1350
      9 C9          0.1274   -2.0819    0.7598 C.ar      1 <0>         0.1496
     10 N1          0.1592   -0.7575    1.1500 N.pl3     1 <0>        -0.4525
     11 C10         0.2298   -0.3004    2.5401 C.3       1 <0>         0.1417
     12 C11         1.6643   -0.0138    2.9024 C.ar      1 <0>        -0.0882
     13 C12         2.4215   -0.9781    3.5416 C.ar      1 <0>        -0.1126
     14 C13         3.7373   -0.7166    3.8745 C.ar      1 <0>        -0.0877
     15 C14         4.2975    0.5095    3.5692 C.ar      1 <0>        -0.1425
     16 C15         3.5403    1.4758    2.9292 C.ar      1 <0>         0.1015
     17 C16         2.2239    1.2105    2.5907 C.ar      1 <0>        -0.1389
     18 F1          4.0866    2.6747    2.6307 F         1 <0>        -0.1358
     19 C17         0.2101   -3.5250    2.9674 C.3       1 <0>        -0.0783
     20 C18        -0.2342   -4.9913    3.1534 C.3       1 <0>        -0.1187
     21 C19         0.1451   -5.6247    1.7982 C.3       1 <0>        -0.0799
     22 O1         -0.0296   -3.3704   -2.6680 O.3       1 <0>        -0.2912
     23 C20        -0.0657   -4.6597   -3.2832 C.3       1 <0>         0.0688
     24 C21        -0.1292   -4.5003   -4.7804 C.2       1 <0>         0.4612
     25 O2         -0.1422   -3.3959   -5.2703 O.2       1 <0>        -0.4782
     26 O3         -0.1713   -5.5852   -5.5697 O.3       1 <0>        -0.3494
     27 C22        -0.2305   -5.3598   -6.9796 C.3       1 <0>         0.0350
     28 C23         0.0029   -0.2084   -2.4503 C.2       1 <0>         0.4437
     29 O4         -1.0664    0.0880   -2.9466 O.2       1 <0>        -0.4088
     30 C24         1.2579   -0.0677   -3.2437 C.2       1 <0>         0.4910
     31 O5          2.3138   -0.4493   -2.7821 O.2       1 <0>        -0.5012
     32 N2          1.2197    0.4830   -4.4732 N.am      1 <0>        -0.8287
     33 H1          1.1578    1.9144    0.1766 H         1 <0>         0.0882
     34 H2         -0.3522    1.9597   -0.7648 H         1 <0>         0.0875
     35 H3         -0.4133    1.9005    1.0132 H         1 <0>         0.0816
     36 H4          0.0219   -5.4604   -1.1004 H         1 <0>         0.1323
     37 H5         -0.3622    0.6076    2.6545 H         1 <0>         0.1051
     38 H6         -0.1631   -1.0756    3.1979 H         1 <0>         0.1105
     39 H7          1.9844   -1.9362    3.7812 H         1 <0>         0.1342
     40 H8          4.3278   -1.4706    4.3738 H         1 <0>         0.1375
     41 H9          5.3254    0.7138    3.8301 H         1 <0>         0.1388
     42 H10         1.6336    1.9619    2.0874 H         1 <0>         0.1376
     43 H11         1.2284   -3.3893    3.3316 H         1 <0>         0.0787
     44 H12        -0.4719   -2.8540    3.4896 H         1 <0>         0.0698
     45 H13         0.3148   -5.4623    3.9687 H         1 <0>         0.0792
     46 H14        -1.3093   -5.0522    3.3223 H         1 <0>         0.0749
     47 H15        -0.5809   -6.3892    1.5216 H         1 <0>         0.0787
     48 H16         1.1462   -6.0532    1.8481 H         1 <0>         0.0841
     49 H17         0.8326   -5.2156   -3.0148 H         1 <0>         0.1103
     50 H18        -0.9456   -5.2025   -2.9380 H         1 <0>         0.1104
     51 H19        -0.2600   -6.3173   -7.4996 H         1 <0>         0.1076
     52 H20        -1.1274   -4.7886   -7.2188 H         1 <0>         0.0638
     53 H21         0.6508   -4.8017   -7.2956 H         1 <0>         0.0634
     54 H22         0.3760    0.7879   -4.8421 H         1 <0>         0.4100
     55 H23         2.0359    0.5745   -4.9892 H         1 <0>         0.4080
@<TRIPOS>BOND
     1    1    2 1
     2    1   33 1
     3    1   34 1
     4    1   35 1
     5    2   10 1
     6    2    3 2
     7    3    4 1
     8    3   28 1
     9    4    9 ar
    10    4    5 ar
    11    5    6 ar
    12    5   22 1
    13    6    7 ar
    14    6   36 1
    15    7   21 1
    16    7    8 ar
    17    8    9 ar
    18    8   19 1
    19    9   10 1
    20   10   11 1
    21   11   12 1
    22   11   37 1
    23   11   38 1
    24   12   17 ar
    25   12   13 ar
    26   13   14 ar
    27   13   39 1
    28   14   15 ar
    29   14   40 1
    30   15   16 ar
    31   15   41 1
    32   16   17 ar
    33   16   18 1
    34   17   42 1
    35   19   20 1
    36   19   43 1
    37   19   44 1
    38   20   21 1
    39   20   45 1
    40   20   46 1
    41   21   47 1
    42   21   48 1
    43   22   23 1
    44   23   24 1
    45   23   49 1
    46   23   50 1
    47   24   25 2
    48   24   26 1
    49   26   27 1
    50   27   51 1
    51   27   52 1
    52   27   53 1
    53   28   29 2
    54   28   30 1
    55   30   31 2
    56   30   32 am
    57   32   54 1
    58   32   55 1
@<TRIPOS>MOLECULE
CHEMBL421780
   46    48     0     0     0
SMALL
USER_CHARGES

@<TRIPOS>ATOM
      1 C1          0.0373    1.6471    0.0211 C.3       1 <0>        -0.1497
      2 C2          0.0233    0.1181   -0.0315 C.3       1 <0>        -0.0703
      3 C3          0.7319   -0.3481   -1.2772 C.2       1 <0>         0.1127
      4 C4          0.1309   -0.5605   -2.5037 C.2       1 <0>        -0.1659
      5 C5          1.2034   -1.0066   -3.4142 C.ar      1 <0>        -0.0392
      6 C6          1.2418   -1.3718   -4.7567 C.ar      1 <0>         0.0232
      7 C7          2.4381   -1.7512   -5.3267 C.ar      1 <0>        -0.1297
      8 C8          3.5989   -1.7701   -4.5679 C.ar      1 <0>        -0.0848
      9 C9          3.5742   -1.4113   -3.2375 C.ar      1 <0>        -0.1426
     10 C10         2.3768   -1.0246   -2.6445 C.ar      1 <0>         0.0942
     11 N1          2.0471   -0.6157   -1.3672 N.pl3     1 <0>        -0.8060
     12 S1          3.1234   -0.4775   -0.1163 S.o2      1 <0>         2.6726
     13 O1          4.4050   -0.2929   -0.7016 O.2       1 <0>        -0.9251
     14 O2          2.5634    0.4529    0.8003 O.2       1 <0>        -0.9253
     15 C11         3.1659   -2.0338    0.7088 C.ar      1 <0>        -0.6746
     16 C12         2.2937   -2.2878    1.7506 C.ar      1 <0>        -0.0166
     17 C13         2.3270   -3.5088    2.3979 C.ar      1 <0>        -0.1383
     18 C14         3.2324   -4.4759    2.0031 C.ar      1 <0>        -0.0583
     19 C15         4.1041   -4.2222    0.9606 C.ar      1 <0>        -0.1379
     20 C16         4.0678   -3.0028    0.3105 C.ar      1 <0>        -0.0128
     21 C17        -0.0184   -1.3530   -5.5829 C.3       1 <0>        -0.1623
     22 C18        -0.2391    0.0334   -6.1309 C.2       1 <0>         0.5010
     23 O3          0.5534    0.9237   -5.8743 O.co2     1 <0>        -0.6765
     24 O4         -1.2102    0.2648   -6.8309 O.co2     1 <0>        -0.6985
     25 C19        -1.2822   -0.3802   -2.8326 C.2       1 <0>         0.4169
     26 O5         -1.6785    0.6933   -3.2424 O.2       1 <0>        -0.3750
     27 C20        -2.2375   -1.5136   -2.6653 C.2       1 <0>         0.4919
     28 O6         -1.8614   -2.5564   -2.1709 O.2       1 <0>        -0.5086
     29 N2         -3.5183   -1.3797   -3.0630 N.am      1 <0>        -0.8271
     30 H1          1.0683    2.0008    0.0356 H         1 <0>         0.0707
     31 H2         -0.4712    2.0456   -0.8568 H         1 <0>         0.0630
     32 H3         -0.4752    1.9844    0.9221 H         1 <0>         0.0673
     33 H4          0.5318   -0.2803    0.8464 H         1 <0>         0.0863
     34 H5         -1.0076   -0.2355   -0.0461 H         1 <0>         0.0904
     35 H6          2.4716   -2.0352   -6.3681 H         1 <0>         0.1257
     36 H7          4.5311   -2.0693   -5.0239 H         1 <0>         0.1301
     37 H8          4.4839   -1.4303   -2.6557 H         1 <0>         0.1356
     38 H9          1.5863   -1.5323    2.0591 H         1 <0>         0.1416
     39 H10         1.6460   -3.7070    3.2124 H         1 <0>         0.1361
     40 H11         3.2590   -5.4296    2.5093 H         1 <0>         0.1334
     41 H12         4.8117   -4.9776    0.6524 H         1 <0>         0.1365
     42 H13         4.7463   -2.8059   -0.5063 H         1 <0>         0.1428
     43 H14         0.0775   -2.0588   -6.4080 H         1 <0>         0.0755
     44 H15        -0.8661   -1.6363   -4.9591 H         1 <0>         0.0571
     45 H16        -3.8188   -0.5464   -3.4581 H         1 <0>         0.4140
     46 H17        -4.1395   -2.1167   -2.9541 H         1 <0>         0.4066
@<TRIPOS>BOND
     1    1    2 1
     2    1   30 1
     3    1   31 1
     4    1   32 1
     5    2    3 1
     6    2   33 1
     7    2   34 1
     8    3   11 1
     9    3    4 2
    10    4    5 1
    11    4   25 1
    12    5   10 ar
    13    5    6 ar
    14    6    7 ar
    15    6   21 1
    16    7    8 ar
    17    7   35 1
    18    8    9 ar
    19    8   36 1
    20    9   10 ar
    21    9   37 1
    22   10   11 1
    23   11   12 1
    24   12   13 2
    25   12   14 2
    26   12   15 1
    27   15   20 ar
    28   15   16 ar
    29   16   17 ar
    30   16   38 1
    31   17   18 ar
    32   17   39 1
    33   18   19 ar
    34   18   40 1
    35   19   20 ar
    36   19   41 1
    37   20   42 1
    38   21   22 1
    39   21   43 1
    40   21   44 1
    41   22   23 2
    42   22   24 1
    43   25   26 2
    44   25   27 1
    45   27   28 2
    46   27   29 am
    47   29   45 1
    48   29   46 1
@<TRIPOS>MOLECULE
CHEMBL332993
   57    60     0     0     0
SMALL
USER_CHARGES

@<TRIPOS>ATOM
      1 C1          0.4703    1.3585    1.0329 C.3       1 <0>        -0.1470
      2 C2          0.4292   -0.1534    0.8018 C.3       1 <0>        -0.0568
      3 C3          1.4103   -0.8294    1.7245 C.2       1 <0>        -0.0609
      4 C4          2.7217   -1.0112    1.5017 C.2       1 <0>        -0.0149
      5 N1          3.2960   -1.6659    2.5642 N.pl3     1 <0>        -0.3088
      6 C5          4.5887   -2.0567    2.7715 C.2       1 <0>        -0.0130
      7 C6          4.9515   -2.6999    3.9048 C.2       1 <0>        -0.0893
      8 C7          4.0026   -2.9790    4.8942 C.2       1 <0>        -0.2446
      9 C8          2.6907   -2.5885    4.6973 C.2       1 <0>         0.1709
     10 C9          2.3466   -1.9238    3.5111 C.2       1 <0>         0.1044
     11 C10         1.1156   -1.4077    3.0382 C.2       1 <0>        -0.2368
     12 C11        -0.1314   -1.4449    3.6922 C.2       1 <0>         0.4511
     13 O1         -0.4963   -0.4951    4.3623 O.2       1 <0>        -0.4130
     14 C12        -1.0024   -2.6437    3.5648 C.2       1 <0>         0.4967
     15 O2         -0.6010   -3.6260    2.9742 O.2       1 <0>        -0.5119
     16 N2         -2.2373   -2.6399    4.1048 N.am      1 <0>        -0.8235
     17 O3          1.7472   -2.8458    5.6403 O.3       1 <0>        -0.2665
     18 C13         2.1514   -3.6280    6.7659 C.3       1 <0>        -0.0075
     19 C14         0.9548   -3.9099    7.6375 C.2       1 <0>         0.5028
     20 O4         -0.1568   -3.5607    7.2784 O.co2     1 <0>        -0.6643
     21 O5          1.0983   -4.4871    8.7018 O.co2     1 <0>        -0.6847
     22 C15         3.4569   -0.5628    0.2650 C.3       1 <0>        -0.0039
     23 C16         3.3497   -1.6270   -0.7967 C.ar      1 <0>        -0.0668
     24 C17         2.5658   -2.7425   -0.5809 C.ar      1 <0>        -0.1039
     25 C18         2.4665   -3.7198   -1.5544 C.ar      1 <0>        -0.1114
     26 C19         3.1509   -3.5854   -2.7491 C.ar      1 <0>        -0.1226
     27 C20         3.9370   -2.4741   -2.9756 C.ar      1 <0>        -0.1063
     28 C21         4.0369   -1.4839   -2.0001 C.ar      1 <0>        -0.0526
     29 C22         4.8767   -0.2842   -2.2400 C.ar      1 <0>        -0.0408
     30 C23         4.3195    0.9895   -2.1458 C.ar      1 <0>        -0.1072
     31 C24         5.1053    2.1019   -2.3695 C.ar      1 <0>        -0.1175
     32 C25         6.4435    1.9540   -2.6867 C.ar      1 <0>        -0.1210
     33 C26         7.0017    0.6920   -2.7819 C.ar      1 <0>        -0.1193
     34 C27         6.2265   -0.4271   -2.5546 C.ar      1 <0>        -0.1076
     35 H1          1.4934    1.7161    0.9164 H         1 <0>         0.0552
     36 H2         -0.1730    1.8547    0.3062 H         1 <0>         0.0573
     37 H3          0.1199    1.5817    2.0406 H         1 <0>         0.0605
     38 H4         -0.5754   -0.5247    1.0045 H         1 <0>         0.0701
     39 H5          0.6948   -0.3702   -0.2328 H         1 <0>         0.0763
     40 H6          5.3335   -1.8488    2.0175 H         1 <0>         0.1568
     41 H7          5.9792   -2.9999    4.0465 H         1 <0>         0.1454
     42 H8          4.2907   -3.4928    5.7994 H         1 <0>         0.1414
     43 H9         -2.5855   -1.8319    4.5132 H         1 <0>         0.4076
     44 H10        -2.7778   -3.4451    4.0850 H         1 <0>         0.4052
     45 H11         2.5786   -4.5692    6.4197 H         1 <0>         0.0641
     46 H12         2.8981   -3.0796    7.3401 H         1 <0>         0.0636
     47 H13         3.0167    0.3638   -0.1035 H         1 <0>         0.1014
     48 H14         4.5065   -0.3954    0.5069 H         1 <0>         0.0826
     49 H15         2.0293   -2.8525    0.3500 H         1 <0>         0.1327
     50 H16         1.8526   -4.5913   -1.3811 H         1 <0>         0.1228
     51 H17         3.0701   -4.3518   -3.5058 H         1 <0>         0.1214
     52 H18         4.4712   -2.3703   -3.9085 H         1 <0>         0.1209
     53 H19         3.2747    1.1060   -1.8986 H         1 <0>         0.1251
     54 H20         4.6744    3.0895   -2.2971 H         1 <0>         0.1235
     55 H21         7.0548    2.8272   -2.8609 H         1 <0>         0.1205
     56 H22         8.0470    0.5823   -3.0302 H         1 <0>         0.1218
     57 H23         6.6643   -1.4119   -2.6249 H         1 <0>         0.1221
@<TRIPOS>BOND
     1    1    2 1
     2    1   35 1
     3    1   36 1
     4    1   37 1
     5    2    3 1
     6    2   38 1
     7    2   39 1
     8    3   11 1
     9    3    4 2
    10    4    5 1
    11    4   22 1
    12    5   10 1
    13    5    6 1
    14    6    7 2
    15    6   40 1
    16    7    8 1
    17    7   41 1
    18    8    9 2
    19    8   42 1
    20    9   10 1
    21    9   17 1
    22   10   11 2
    23   11   12 1
    24   12   13 2
    25   12   14 1
    26   14   15 2
    27   14   16 am
    28   16   43 1
    29   16   44 1
    30   17   18 1
    31   18   19 1
    32   18   45 1
    33   18   46 1
    34   19   20 2
    35   19   21 1
    36   22   23 1
    37   22   47 1
    38   22   48 1
    39   23   28 ar
    40   23   24 ar
    41   24   25 ar
    42   24   49 1
    43   25   26 ar
    44   25   50 1
    45   26   27 ar
    46   26   51 1
    47   27   28 ar
    48   27   52 1
    49   28   29 1
    50   29   34 ar
    51   29   30 ar
    52   30   31 ar
    53   30   53 1
    54   31   32 ar
    55   31   54 1
    56   32   33 ar
    57   32   55 1
    58   33   34 ar
    59   33   56 1
    60   34   57 1
@<TRIPOS>MOLECULE
CHEMBL148649
   50    52     0     0     0
SMALL
USER_CHARGES

@<TRIPOS>ATOM
      1 C1          0.0727    1.4280    0.0034 C.3       1 <0>        -0.1501
      2 C2          0.1031   -0.1017    0.0086 C.3       1 <0>        -0.0692
      3 C3          0.8070   -0.5858    1.2501 C.2       1 <0>         0.1184
      4 C4          2.1654   -0.8186    1.3569 C.2       1 <0>        -0.2091
      5 C5          2.3955   -1.2757    2.7409 C.ar      1 <0>        -0.0971
      6 C6          1.1360   -1.2790    3.3583 C.ar      1 <0>         0.1350
      7 N1          0.2106   -0.8523    2.4264 N.pl3     1 <0>        -0.4555
      8 C7         -1.2251   -0.7125    2.6824 C.3       1 <0>         0.1488
      9 C8         -1.9213   -2.0100    2.3619 C.ar      1 <0>        -0.1142
     10 C9         -2.4009   -2.2403    1.0861 C.ar      1 <0>        -0.1025
     11 C10        -3.0394   -3.4306    0.7921 C.ar      1 <0>        -0.1205
     12 C11        -3.1980   -4.3907    1.7739 C.ar      1 <0>        -0.1116
     13 C12        -2.7177   -4.1608    3.0495 C.ar      1 <0>        -0.1196
     14 C13        -2.0753   -2.9723    3.3424 C.ar      1 <0>        -0.0944
     15 C14         1.0302   -1.6701    4.6895 C.ar      1 <0>        -0.1830
     16 C15         2.1560   -2.0491    5.3897 C.ar      1 <0>        -0.0514
     17 C16         3.4012   -2.0466    4.7817 C.ar      1 <0>        -0.2504
     18 C17         3.5288   -1.6616    3.4583 C.ar      1 <0>         0.1929
     19 O1          4.7495   -1.6592    2.8616 O.3       1 <0>        -0.2749
     20 C18         5.8433   -2.1793    3.6199 C.3       1 <0>         0.0116
     21 C19         6.4115   -1.0776    4.5168 C.3       1 <0>        -0.1555
     22 C20         6.9174   -2.6676    2.6824 C.2       1 <0>         0.5064
     23 O2          6.8018   -2.4962    1.4808 O.co2     1 <0>        -0.6676
     24 O3          7.9019   -3.2340    3.1254 O.co2     1 <0>        -0.6874
     25 C21         3.1711   -0.6472    0.3097 C.2       1 <0>         0.4476
     26 O4          3.6714    0.4444    0.1202 O.2       1 <0>        -0.4166
     27 C22         3.5832   -1.8116   -0.5261 C.2       1 <0>         0.4972
     28 O5          3.1527   -2.9192   -0.2784 O.2       1 <0>        -0.5018
     29 N2          4.4336   -1.6341   -1.5565 N.am      1 <0>        -0.8256
     30 H1          1.0928    1.8118    0.0156 H         1 <0>         0.0674
     31 H2         -0.4365    1.7782   -0.8946 H         1 <0>         0.0643
     32 H3         -0.4600    1.7839    0.8852 H         1 <0>         0.0556
     33 H4         -0.9170   -0.4854   -0.0036 H         1 <0>         0.0799
     34 H5          0.6358   -0.4575   -0.8732 H         1 <0>         0.0858
     35 H6         -1.3845   -0.4641    3.7317 H         1 <0>         0.0993
     36 H7         -1.6303    0.0818    2.0554 H         1 <0>         0.0985
     37 H8         -2.2769   -1.4902    0.3190 H         1 <0>         0.1229
     38 H9         -3.4148   -3.6102   -0.2045 H         1 <0>         0.1235
     39 H10        -3.6976   -5.3203    1.5444 H         1 <0>         0.1224
     40 H11        -2.8419   -4.9108    3.8166 H         1 <0>         0.1238
     41 H12        -1.6967   -2.7942    4.3380 H         1 <0>         0.1235
     42 H13         0.0655   -1.6764    5.1749 H         1 <0>         0.1147
     43 H14         2.0663   -2.3508    6.4228 H         1 <0>         0.1243
     44 H15         4.2746   -2.3459    5.3421 H         1 <0>         0.1324
     45 H16         5.4960   -3.0076    4.2375 H         1 <0>         0.0685
     46 H17         6.7588   -0.2493    3.8993 H         1 <0>         0.0583
     47 H18         5.6347   -0.7245    5.1950 H         1 <0>         0.0491
     48 H19         7.2459   -1.4743    5.0953 H         1 <0>         0.0731
     49 H20         4.7776   -0.7490   -1.7545 H         1 <0>         0.4066
     50 H21         4.7017   -2.3914   -2.1002 H         1 <0>         0.4061
@<TRIPOS>BOND
     1    1    2 1
     2    1   30 1
     3    1   31 1
     4    1   32 1
     5    2    3 1
     6    2   33 1
     7    2   34 1
     8    3    7 1
     9    3    4 2
    10    4    5 1
    11    4   25 1
    12    5   18 ar
    13    5    6 ar
    14    6    7 1
    15    6   15 ar
    16    7    8 1
    17    8    9 1
    18    8   35 1
    19    8   36 1
    20    9   14 ar
    21    9   10 ar
    22   10   11 ar
    23   10   37 1
    24   11   12 ar
    25   11   38 1
    26   12   13 ar
    27   12   39 1
    28   13   14 ar
    29   13   40 1
    30   14   41 1
    31   15   16 ar
    32   15   42 1
    33   16   17 ar
    34   16   43 1
    35   17   18 ar
    36   17   44 1
    37   18   19 1
    38   19   20 1
    39   20   21 1
    40   20   22 1
    41   20   45 1
    42   21   46 1
    43   21   47 1
    44   21   48 1
    45   22   23 2
    46   22   24 1
    47   25   26 2
    48   25   27 1
    49   27   28 2
    50   27   29 am
    51   29   49 1
    52   29   50 1
@<TRIPOS>MOLECULE
CHEMBL148649__1
   50    52     0     0     0
SMALL
USER_CHARGES

@<TRIPOS>ATOM
      1 C1         -0.1061    2.0542    0.6629 C.3       1 <0>        -0.1509
      2 C2          0.0213    0.5788    0.2783 C.3       1 <0>        -0.0687
      3 C3          0.7415   -0.1654    1.3731 C.2       1 <0>         0.1183
      4 C4          2.1107   -0.3376    1.4528 C.2       1 <0>        -0.2071
      5 C5          2.3549   -1.1201    2.6798 C.ar      1 <0>        -0.0977
      6 C6          1.0917   -1.3555    3.2425 C.ar      1 <0>         0.1351
      7 N1          0.1509   -0.7592    2.4263 N.pl3     1 <0>        -0.4556
      8 C7         -1.2934   -0.7741    2.6716 C.3       1 <0>         0.1484
      9 C8         -1.9024   -1.9846    2.0122 C.ar      1 <0>        -0.1133
     10 C9         -2.3530   -1.9077    0.7076 C.ar      1 <0>        -0.1023
     11 C10        -2.9117   -3.0181    0.1027 C.ar      1 <0>        -0.1206
     12 C11        -3.0193   -4.2055    0.8023 C.ar      1 <0>        -0.1120
     13 C12        -2.5679   -4.2826    2.1066 C.ar      1 <0>        -0.1199
     14 C13        -2.0053   -3.1734    2.7100 C.ar      1 <0>        -0.0945
     15 C14         0.9970   -2.0804    4.4265 C.ar      1 <0>        -0.1828
     16 C15         2.1371   -2.5596    5.0361 C.ar      1 <0>        -0.0514
     17 C16         3.3860   -2.3282    4.4820 C.ar      1 <0>        -0.2504
     18 C17         3.5028   -1.6099    3.3046 C.ar      1 <0>         0.1925
     19 O1          4.7270   -1.3830    2.7606 O.3       1 <0>        -0.2752
     20 C18         5.8621   -1.8091    3.5170 C.3       1 <0>         0.0118
     21 C19         6.1429   -3.2850    3.2276 C.3       1 <0>        -0.1554
     22 C20         7.0622   -0.9840    3.1298 C.2       1 <0>         0.5056
     23 O2          8.1169   -1.1255    3.7249 O.co2     1 <0>        -0.6870
     24 O3          6.9785   -0.1750    2.2215 O.co2     1 <0>        -0.6681
     25 C21         3.1144    0.1552    0.5110 C.2       1 <0>         0.4396
     26 O4          3.5908    1.2642    0.6555 O.2       1 <0>        -0.4004
     27 C22         3.5538   -0.7026   -0.6272 C.2       1 <0>         0.4949
     28 O5          3.1300   -1.8352   -0.7325 O.2       1 <0>        -0.5085
     29 N2          4.4213   -0.2202   -1.5389 N.am      1 <0>        -0.8281
     30 H1          0.8875    2.4811    0.7997 H         1 <0>         0.0675
     31 H2         -0.6270    2.5924   -0.1289 H         1 <0>         0.0644
     32 H3         -0.6695    2.1401    1.5921 H         1 <0>         0.0560
     33 H4         -0.9722    0.1519    0.1416 H         1 <0>         0.0797
     34 H5          0.5847    0.4929   -0.6508 H         1 <0>         0.0855
     35 H6         -1.4792   -0.8129    3.7449 H         1 <0>         0.0994
     36 H7         -1.7416    0.1292    2.2576 H         1 <0>         0.0986
     37 H8         -2.2689   -0.9800    0.1610 H         1 <0>         0.1230
     38 H9         -3.2644   -2.9578   -0.9163 H         1 <0>         0.1234
     39 H10        -3.4564   -5.0728    0.3300 H         1 <0>         0.1221
     40 H11        -2.6523   -5.2102    2.6533 H         1 <0>         0.1236
     41 H12        -1.6492   -3.2347    3.7278 H         1 <0>         0.1236
     42 H13         0.0296   -2.2676    4.8685 H         1 <0>         0.1147
     43 H14         2.0560   -3.1208    5.9552 H         1 <0>         0.1243
     44 H15         4.2707   -2.7094    4.9702 H         1 <0>         0.1324
     45 H16         5.6597   -1.6794    4.5802 H         1 <0>         0.0689
     46 H17         6.3453   -3.4146    2.1644 H         1 <0>         0.0580
     47 H18         7.0087   -3.6100    3.8045 H         1 <0>         0.0731
     48 H19         5.2749   -3.8817    3.5077 H         1 <0>         0.0495
     49 H20         4.7599    0.6849   -1.4548 H         1 <0>         0.4111
     50 H21         4.7071   -0.7781   -2.2792 H         1 <0>         0.4047
@<TRIPOS>BOND
     1    1    2 1
     2    1   30 1
     3    1   31 1
     4    1   32 1
     5    2    3 1
     6    2   33 1
     7    2   34 1
     8    3    7 1
     9    3    4 2
    10    4    5 1
    11    4   25 1
    12    5   18 ar
    13    5    6 ar
    14    6    7 1
    15    6   15 ar
    16    7    8 1
    17    8    9 1
    18    8   35 1
    19    8   36 1
    20    9   14 ar
    21    9   10 ar
    22   10   11 ar
    23   10   37 1
    24   11   12 ar
    25   11   38 1
    26   12   13 ar
    27   12   39 1
    28   13   14 ar
    29   13   40 1
    30   14   41 1
    31   15   16 ar
    32   15   42 1
    33   16   17 ar
    34   16   43 1
    35   17   18 ar
    36   17   44 1
    37   18   19 1
    38   19   20 1
    39   20   21 1
    40   20   22 1
    41   20   45 1
    42   21   46 1
    43   21   47 1
    44   21   48 1
    45   22   23 2
    46   22   24 1
    47   25   26 2
    48   25   27 1
    49   27   28 2
    50   27   29 am
    51   29   49 1
    52   29   50 1
@<TRIPOS>MOLECULE
CHEMBL57713
   86    88     0     0     0
SMALL
USER_CHARGES

@<TRIPOS>ATOM
      1 C1         -0.0187    1.5258    0.0104 C.3       1 <0>        -0.1543
      2 C2          0.0021   -0.0041    0.0020 C.3       1 <0>        -0.1261
      3 C3          0.7421   -0.5109    1.2415 C.3       1 <0>        -0.1212
      4 C4          0.7628   -2.0407    1.2331 C.3       1 <0>        -0.1212
      5 C5          1.5028   -2.5476    2.4727 C.3       1 <0>        -0.1206
      6 C6          1.5236   -4.0774    2.4642 C.3       1 <0>        -0.1206
      7 C7          2.2636   -4.5842    3.7038 C.3       1 <0>        -0.1203
      8 C8          2.2843   -6.1141    3.6954 C.3       1 <0>        -0.1206
      9 C9          3.0243   -6.6209    4.9349 C.3       1 <0>        -0.1180
     10 C10         3.0450   -8.1508    4.9265 C.3       1 <0>        -0.1173
     11 C11         3.7850   -8.6576    6.1660 C.3       1 <0>        -0.1337
     12 C12         3.8058  -10.1874    6.1576 C.3       1 <0>         0.1144
     13 N1          4.5143  -10.6727    7.3445 N.am      1 <0>        -0.6092
     14 C13         3.7761  -10.9337    8.5826 C.3       1 <0>         0.0677
     15 C14         5.8454  -10.8791    7.2973 C.2       1 <0>         0.4959
     16 O1          6.4566  -10.6630    6.2722 O.2       1 <0>        -0.5112
     17 C15         6.5742  -11.3783    8.5182 C.3       1 <0>         0.0660
     18 N2          7.9998  -11.5201    8.2119 N.pl3     1 <0>        -0.4738
     19 C16         8.4736  -12.7016    7.7185 C.2       1 <0>         0.1454
     20 C17         9.7893  -12.8211    7.4398 C.2       1 <0>        -0.2409
     21 C18        10.6430  -11.7115    7.6687 C.2       1 <0>         0.5217
     22 O2         11.8371  -11.7937    7.4243 O.2       1 <0>        -0.5048
     23 N3         10.1310  -10.5725    8.1542 N.2       1 <0>        -0.5819
     24 C19         8.8427  -10.4718    8.4155 C.2       1 <0>         0.4019
     25 S1          8.2029   -8.9561    9.0465 S.3       1 <0>        -0.0119
     26 C20         9.6564   -7.8757    9.1505 C.3       1 <0>        -0.0515
     27 C21         9.2434   -6.5279    9.6833 C.ar      1 <0>        -0.0982
     28 C22         8.8463   -5.5322    8.8103 C.ar      1 <0>        -0.0656
     29 C23         8.4669   -4.2960    9.2978 C.ar      1 <0>        -0.1530
     30 C24         8.4846   -4.0548   10.6611 C.ar      1 <0>         0.1123
     31 C25         8.8825   -5.0528   11.5345 C.ar      1 <0>        -0.1536
     32 C26         9.2564   -6.2900   11.0450 C.ar      1 <0>        -0.0663
     33 F1          8.1144   -2.8466   11.1388 F         1 <0>        -0.1352
     34 C27        10.3421  -14.1127    6.8947 C.3       1 <0>         0.0038
     35 C28        10.4015  -14.0387    5.3907 C.ar      1 <0>        -0.2282
     36 C29         9.3241  -14.4431    4.6184 C.ar      1 <0>         0.1925
     37 N4          9.4098  -14.3648    3.3006 N.ar      1 <0>        -0.5236
     38 C30        10.5071  -13.9073    2.7197 C.ar      1 <0>         0.4949
     39 N5         11.5536  -13.5135    3.4272 N.ar      1 <0>        -0.5650
     40 C31        11.5327  -13.5593    4.7492 C.ar      1 <0>         0.2061
     41 O3         10.5605  -13.8407    1.3678 O.3       1 <0>        -0.2905
     42 C32        11.7676  -13.3394    0.7901 C.3       1 <0>         0.0439
     43 H1          1.0039    1.9031    0.0027 H         1 <0>         0.0534
     44 H2         -0.5459    1.8868   -0.8726 H         1 <0>         0.0535
     45 H3         -0.5289    1.8773    0.9072 H         1 <0>         0.0533
     46 H4         -1.0205   -0.3814    0.0098 H         1 <0>         0.0602
     47 H5          0.5123   -0.3556   -0.8948 H         1 <0>         0.0603
     48 H6          1.7647   -0.1336    1.2338 H         1 <0>         0.0605
     49 H7          0.2319   -0.1594    2.1383 H         1 <0>         0.0605
     50 H8         -0.2598   -2.4180    1.2409 H         1 <0>         0.0605
     51 H9          1.2730   -2.3923    0.3363 H         1 <0>         0.0606
     52 H10         2.5254   -2.1703    2.4649 H         1 <0>         0.0604
     53 H11         0.9926   -2.1961    3.3695 H         1 <0>         0.0603
     54 H12         0.5010   -4.4547    2.4720 H         1 <0>         0.0604
     55 H13         2.0337   -4.4289    1.5675 H         1 <0>         0.0606
     56 H14         3.2861   -4.2070    3.6960 H         1 <0>         0.0604
     57 H15         1.7534   -4.2327    4.6006 H         1 <0>         0.0603
     58 H16         1.2617   -6.4914    3.7031 H         1 <0>         0.0609
     59 H17         2.7945   -6.4656    2.7986 H         1 <0>         0.0611
     60 H18         4.0469   -6.2436    4.9271 H         1 <0>         0.0611
     61 H19         2.5141   -6.2694    5.8317 H         1 <0>         0.0607
     62 H20         2.0224   -8.5280    4.9342 H         1 <0>         0.0632
     63 H21         3.5552   -8.5023    4.0297 H         1 <0>         0.0641
     64 H22         4.8076   -8.2803    6.1583 H         1 <0>         0.0676
     65 H23         3.2748   -8.3061    7.0628 H         1 <0>         0.0641
     66 H24         2.7832  -10.5647    6.1653 H         1 <0>         0.0816
     67 H25         4.3160  -10.5389    5.2608 H         1 <0>         0.0860
     68 H26         3.4320  -11.9680    8.5893 H         1 <0>         0.0654
     69 H27         4.4294  -10.7626    9.4382 H         1 <0>         0.0727
     70 H28         2.9175  -10.2648    8.6416 H         1 <0>         0.0818
     71 H29         6.4469  -10.6665    9.3337 H         1 <0>         0.1319
     72 H30         6.1681  -12.3457    8.8135 H         1 <0>         0.1357
     73 H31         7.8032  -13.5321    7.5533 H         1 <0>         0.1740
     74 H32        10.3928   -8.3208    9.8196 H         1 <0>         0.1150
     75 H33        10.0921   -7.7563    8.1585 H         1 <0>         0.1137
     76 H34         8.8329   -5.7204    7.7469 H         1 <0>         0.1378
     77 H35         8.1571   -3.5182    8.6156 H         1 <0>         0.1406
     78 H36         8.8970   -4.8658   12.5981 H         1 <0>         0.1411
     79 H37         9.5626   -7.0700   11.7264 H         1 <0>         0.1388
     80 H38        11.3448  -14.2745    7.2904 H         1 <0>         0.0989
     81 H39         9.6963  -14.9387    7.1926 H         1 <0>         0.0883
     82 H40         8.4259  -14.8178    5.0866 H         1 <0>         0.1714
     83 H41        12.3880  -13.2314    5.3213 H         1 <0>         0.1774
     84 H42        12.6028  -13.9746    1.0854 H         1 <0>         0.0639
     85 H43        11.6777  -13.3390   -0.2961 H         1 <0>         0.1049
     86 H44        11.9430  -12.3223    1.1406 H         1 <0>         0.0631
@<TRIPOS>BOND
     1    1    2 1
     2    1   43 1
     3    1   44 1
     4    1   45 1
     5    2    3 1
     6    2   46 1
     7    2   47 1
     8    3    4 1
     9    3   48 1
    10    3   49 1
    11    4    5 1
    12    4   50 1
    13    4   51 1
    14    5    6 1
    15    5   52 1
    16    5   53 1
    17    6    7 1
    18    6   54 1
    19    6   55 1
    20    7    8 1
    21    7   56 1
    22    7   57 1
    23    8    9 1
    24    8   58 1
    25    8   59 1
    26    9   10 1
    27    9   60 1
    28    9   61 1
    29   10   11 1
    30   10   62 1
    31   10   63 1
    32   11   12 1
    33   11   64 1
    34   11   65 1
    35   12   13 1
    36   12   66 1
    37   12   67 1
    38   13   14 1
    39   13   15 am
    40   14   68 1
    41   14   69 1
    42   14   70 1
    43   15   16 2
    44   15   17 1
    45   17   18 1
    46   17   71 1
    47   17   72 1
    48   18   24 1
    49   18   19 1
    50   19   20 2
    51   19   73 1
    52   20   21 1
    53   20   34 1
    54   21   22 2
    55   21   23 1
    56   23   24 2
    57   24   25 1
    58   25   26 1
    59   26   27 1
    60   26   74 1
    61   26   75 1
    62   27   32 ar
    63   27   28 ar
    64   28   29 ar
    65   28   76 1
    66   29   30 ar
    67   29   77 1
    68   30   31 ar
    69   30   33 1
    70   31   32 ar
    71   31   78 1
    72   32   79 1
    73   34   35 1
    74   34   80 1
    75   34   81 1
    76   35   40 ar
    77   35   36 ar
    78   36   37 ar
    79   36   82 1
    80   37   38 ar
    81   38   39 ar
    82   38   41 1
    83   39   40 ar
    84   40   83 1
    85   41   42 1
    86   42   84 1
    87   42   85 1
    88   42   86 1
@<TRIPOS>MOLECULE
CHEMBL355944
   54    57     0     0     0
SMALL
USER_CHARGES

@<TRIPOS>ATOM
      1 C1          0.0163    1.5160   -0.0025 C.3       1 <0>        -0.1010
      2 C2          0.0179    0.0090   -0.0013 C.2       1 <0>         0.1148
      3 C3         -0.0895   -0.7893   -1.1247 C.2       1 <0>        -0.2105
      4 C4         -0.0408   -2.1833   -0.6432 C.ar      1 <0>        -0.0956
      5 C5          0.0939   -2.1034    0.7508 C.ar      1 <0>         0.1349
      6 N1          0.1300   -0.7660    1.0930 N.pl3     1 <0>        -0.4571
      7 C6          0.2679   -0.2601    2.4609 C.3       1 <0>         0.1491
      8 C7         -1.0983   -0.0893    3.0735 C.ar      1 <0>        -0.1101
      9 C8         -1.7706    1.1121    2.9376 C.ar      1 <0>        -0.1009
     10 C9         -3.0247    1.2758    3.4972 C.ar      1 <0>        -0.1162
     11 C10        -3.6126    0.2397    4.1945 C.ar      1 <0>        -0.1024
     12 C11        -2.9403   -0.9725    4.3341 C.ar      1 <0>        -0.0455
     13 C12        -1.6789   -1.1335    3.7640 C.ar      1 <0>        -0.0847
     14 C13        -3.5671   -2.0898    5.0830 C.ar      1 <0>        -0.0444
     15 C14        -2.8923   -3.3002    5.2275 C.ar      1 <0>        -0.1078
     16 C15        -3.4797   -4.3359    5.9255 C.ar      1 <0>        -0.1158
     17 C16        -4.7361   -4.1738    6.4810 C.ar      1 <0>        -0.1196
     18 C17        -5.4105   -2.9744    6.3407 C.ar      1 <0>        -0.1186
     19 C18        -4.8302   -1.9303    5.6492 C.ar      1 <0>        -0.1115
     20 C19         0.1682   -3.2755    1.4969 C.ar      1 <0>        -0.1819
     21 C20         0.1099   -4.5005    0.8667 C.ar      1 <0>        -0.0508
     22 C21        -0.0231   -4.5818   -0.5102 C.ar      1 <0>        -0.2484
     23 C22        -0.0993   -3.4282   -1.2715 C.ar      1 <0>         0.1881
     24 O1         -0.2301   -3.5073   -2.6215 O.3       1 <0>        -0.2773
     25 C23        -0.2829   -4.8162   -3.1926 C.3       1 <0>        -0.0072
     26 C24        -0.4283   -4.7060   -4.6886 C.2       1 <0>         0.5022
     27 O2         -0.4816   -3.6084   -5.2167 O.co2     1 <0>        -0.6685
     28 O3         -0.4924   -5.7145   -5.3707 O.co2     1 <0>        -0.6884
     29 C25        -0.2249   -0.3427   -2.5101 C.2       1 <0>         0.4441
     30 O4         -1.3244   -0.0885   -2.9621 O.2       1 <0>        -0.4095
     31 C26         0.9859   -0.1988   -3.3689 C.2       1 <0>         0.4976
     32 O5          2.0716   -0.5442   -2.9501 O.2       1 <0>        -0.5075
     33 N2          0.8746    0.3146   -4.6101 N.am      1 <0>        -0.8257
     34 H1          1.0435    1.8804   -0.0150 H         1 <0>         0.0836
     35 H2         -0.5084    1.8780   -0.8867 H         1 <0>         0.0834
     36 H3         -0.4873    1.8796    0.8932 H         1 <0>         0.0757
     37 H4          0.8460   -0.9689    3.0539 H         1 <0>         0.1003
     38 H5          0.7808    0.7016    2.4426 H         1 <0>         0.1009
     39 H6         -1.3143    1.9254    2.3928 H         1 <0>         0.1258
     40 H7         -3.5448    2.2160    3.3887 H         1 <0>         0.1272
     41 H8         -4.5919    0.3686    4.6314 H         1 <0>         0.1261
     42 H9         -1.1549   -2.0724    3.8660 H         1 <0>         0.1271
     43 H10        -1.9114   -3.4279    4.7938 H         1 <0>         0.1255
     44 H11        -2.9577   -5.2746    6.0378 H         1 <0>         0.1250
     45 H12        -5.1923   -4.9870    7.0261 H         1 <0>         0.1222
     46 H13        -6.3914   -2.8533    6.7762 H         1 <0>         0.1234
     47 H14        -5.3558   -0.9927    5.5441 H         1 <0>         0.1243
     48 H15         0.2720   -3.2258    2.5708 H         1 <0>         0.1142
     49 H16         0.1690   -5.4061    1.4522 H         1 <0>         0.1248
     50 H17        -0.0675   -5.5480   -0.9908 H         1 <0>         0.1306
     51 H18         0.6353   -5.3534   -2.9554 H         1 <0>         0.0608
     52 H19        -1.1363   -5.3569   -2.7835 H         1 <0>         0.0603
     53 H20         0.0070    0.5907   -4.9448 H         1 <0>         0.4092
     54 H21         1.6621    0.4082   -5.1687 H         1 <0>         0.4056
@<TRIPOS>BOND
     1    1    2 1
     2    1   34 1
     3    1   35 1
     4    1   36 1
     5    2    6 1
     6    2    3 2
     7    3    4 1
     8    3   29 1
     9    4   23 ar
    10    4    5 ar
    11    5    6 1
    12    5   20 ar
    13    6    7 1
    14    7    8 1
    15    7   37 1
    16    7   38 1
    17    8   13 ar
    18    8    9 ar
    19    9   10 ar
    20    9   39 1
    21   10   11 ar
    22   10   40 1
    23   11   12 ar
    24   11   41 1
    25   12   13 ar
    26   12   14 1
    27   13   42 1
    28   14   19 ar
    29   14   15 ar
    30   15   16 ar
    31   15   43 1
    32   16   17 ar
    33   16   44 1
    34   17   18 ar
    35   17   45 1
    36   18   19 ar
    37   18   46 1
    38   19   47 1
    39   20   21 ar
    40   20   48 1
    41   21   22 ar
    42   21   49 1
    43   22   23 ar
    44   22   50 1
    45   23   24 1
    46   24   25 1
    47   25   26 1
    48   25   51 1
    49   25   52 1
    50   26   27 2
    51   26   28 1
    52   29   30 2
    53   29   31 1
    54   31   32 2
    55   31   33 am
    56   33   53 1
    57   33   54 1
@<TRIPOS>MOLECULE
CHEMBL356859
   55    58     0     0     0
SMALL
USER_CHARGES

@<TRIPOS>ATOM
      1 C1         -0.3580    2.3495    0.1881 C.3       1 <0>        -0.0988
      2 C2         -0.1755    0.8775   -0.0780 C.2       1 <0>         0.1166
      3 C3         -0.1466    0.3122   -1.2953 C.2       1 <0>        -0.1648
      4 C4          0.0495   -1.1258   -1.0958 C.ar      1 <0>        -0.0450
      5 C5          0.1604   -2.2178   -1.9595 C.ar      1 <0>        -0.1114
      6 C6          0.3453   -3.4829   -1.4390 C.ar      1 <0>         0.1028
      7 C7          0.4206   -3.6710   -0.0612 C.ar      1 <0>        -0.1799
      8 C8          0.3126   -2.6017    0.7995 C.ar      1 <0>        -0.0860
      9 C9          0.1265   -1.3189    0.2949 C.ar      1 <0>         0.0717
     10 N1         -0.0090   -0.0799    0.8849 N.pl3     1 <0>        -0.4754
     11 C10         0.0184    0.1730    2.3277 C.3       1 <0>         0.1548
     12 C11        -1.3908    0.1904    2.8615 C.ar      1 <0>        -0.0982
     13 C12        -2.4473   -0.1359    2.0352 C.ar      1 <0>        -0.1010
     14 C13        -3.7410   -0.1204    2.5238 C.ar      1 <0>        -0.1134
     15 C14        -3.9839    0.2213    3.8422 C.ar      1 <0>        -0.1147
     16 C15        -2.9351    0.5488    4.6772 C.ar      1 <0>        -0.1032
     17 C16        -1.6291    0.5301    4.1914 C.ar      1 <0>        -0.0398
     18 C17        -0.4968    0.8763    5.0859 C.ar      1 <0>        -0.0516
     19 C18         0.5527   -0.0225    5.2653 C.ar      1 <0>        -0.1110
     20 C19         1.6035    0.3049    6.0981 C.ar      1 <0>        -0.1157
     21 C20         1.6160    1.5226    6.7541 C.ar      1 <0>        -0.1157
     22 C21         0.5765    2.4184    6.5800 C.ar      1 <0>        -0.1164
     23 C22        -0.4765    2.1037    5.7451 C.ar      1 <0>        -0.1043
     24 O1          0.4538   -4.5499   -2.2751 O.3       1 <0>        -0.3193
     25 C23         0.6439   -5.8309   -1.6708 C.3       1 <0>         0.0289
     26 C24        -0.2892    1.0224   -2.6168 C.3       1 <0>        -0.0547
     27 C25         1.0709    1.4443   -3.1097 C.2       1 <0>         0.5117
     28 O2          2.0589    1.1931   -2.4527 O.2       1 <0>        -0.5131
     29 N2          1.1895    2.1009   -4.2808 N.am      1 <0>        -0.5859
     30 N3          2.4224    2.4834   -4.7276 N.3       1 <0>        -0.6046
     31 H1          0.6160    2.8384    0.2094 H         1 <0>         0.0791
     32 H2         -0.9678    2.7886   -0.6015 H         1 <0>         0.0829
     33 H3         -0.8542    2.4863    1.1489 H         1 <0>         0.0704
     34 H4          0.1014   -2.0734   -3.0282 H         1 <0>         0.1271
     35 H5          0.5647   -4.6649    0.3360 H         1 <0>         0.1302
     36 H6          0.3725   -2.7590    1.8663 H         1 <0>         0.1196
     37 H7          0.5853   -0.6147    2.8239 H         1 <0>         0.1006
     38 H8          0.4912    1.1364    2.5187 H         1 <0>         0.0989
     39 H9         -2.2633   -0.4034    1.0051 H         1 <0>         0.1274
     40 H10        -4.5647   -0.3756    1.8736 H         1 <0>         0.1241
     41 H11        -4.9961    0.2322    4.2185 H         1 <0>         0.1256
     42 H12        -3.1259    0.8157    5.7061 H         1 <0>         0.1258
     43 H13         0.5437   -0.9737    4.7538 H         1 <0>         0.1216
     44 H14         2.4173   -0.3912    6.2381 H         1 <0>         0.1253
     45 H15         2.4402    1.7747    7.4048 H         1 <0>         0.1240
     46 H16         0.5911    3.3676    7.0949 H         1 <0>         0.1252
     47 H17        -1.2854    2.8058    5.6064 H         1 <0>         0.1240
     48 H18         1.5629   -5.8233   -1.0846 H         1 <0>         0.0535
     49 H19        -0.2009   -6.0541   -1.0191 H         1 <0>         0.0533
     50 H20         0.7147   -6.5922   -2.4476 H         1 <0>         0.0983
     51 H21        -0.7465    0.3504   -3.3429 H         1 <0>         0.1027
     52 H22        -0.9190    1.9030   -2.4899 H         1 <0>         0.0983
     53 H23         0.3993    2.3019   -4.8063 H         1 <0>         0.3994
     54 H24         2.3535    2.9622   -5.6131 H         1 <0>         0.3558
     55 H25         2.8937    3.0553   -4.0429 H         1 <0>         0.3447
@<TRIPOS>BOND
     1    1    2 1
     2    1   31 1
     3    1   32 1
     4    1   33 1
     5    2   10 1
     6    2    3 2
     7    3    4 1
     8    3   26 1
     9    4    9 ar
    10    4    5 ar
    11    5    6 ar
    12    5   34 1
    13    6    7 ar
    14    6   24 1
    15    7    8 ar
    16    7   35 1
    17    8    9 ar
    18    8   36 1
    19    9   10 1
    20   10   11 1
    21   11   12 1
    22   11   37 1
    23   11   38 1
    24   12   17 ar
    25   12   13 ar
    26   13   14 ar
    27   13   39 1
    28   14   15 ar
    29   14   40 1
    30   15   16 ar
    31   15   41 1
    32   16   17 ar
    33   16   42 1
    34   17   18 1
    35   18   23 ar
    36   18   19 ar
    37   19   20 ar
    38   19   43 1
    39   20   21 ar
    40   20   44 1
    41   21   22 ar
    42   21   45 1
    43   22   23 ar
    44   22   46 1
    45   23   47 1
    46   24   25 1
    47   25   48 1
    48   25   49 1
    49   25   50 1
    50   26   27 1
    51   26   51 1
    52   26   52 1
    53   27   28 2
    54   27   29 am
    55   29   30 1
    56   29   53 1
    57   30   54 1
    58   30   55 1
@<TRIPOS>MOLECULE
CHEMBL423205
   63    66     0     0     0
SMALL
USER_CHARGES

@<TRIPOS>ATOM
      1 C1         -0.3580    2.3495    0.1881 C.3       1 <0>        -0.0955
      2 C2         -0.1755    0.8775   -0.0780 C.2       1 <0>         0.1094
      3 C3         -0.1466    0.3122   -1.2953 C.2       1 <0>        -0.1639
      4 C4          0.0495   -1.1258   -1.0958 C.ar      1 <0>        -0.0450
      5 C5          0.1604   -2.2178   -1.9595 C.ar      1 <0>        -0.1175
      6 C6          0.3453   -3.4829   -1.4390 C.ar      1 <0>         0.1154
      7 C7          0.4206   -3.6710   -0.0612 C.ar      1 <0>        -0.1804
      8 C8          0.3126   -2.6017    0.7995 C.ar      1 <0>        -0.0871
      9 C9          0.1265   -1.3189    0.2949 C.ar      1 <0>         0.0663
     10 N1         -0.0090   -0.0799    0.8849 N.pl3     1 <0>        -0.4772
     11 C10         0.0184    0.1730    2.3277 C.3       1 <0>         0.1556
     12 C11        -1.3908    0.1904    2.8615 C.ar      1 <0>        -0.0959
     13 C12        -2.4473   -0.1359    2.0352 C.ar      1 <0>        -0.0991
     14 C13        -3.7410   -0.1204    2.5238 C.ar      1 <0>        -0.1127
     15 C14        -3.9839    0.2213    3.8422 C.ar      1 <0>        -0.1164
     16 C15        -2.9351    0.5488    4.6772 C.ar      1 <0>        -0.1045
     17 C16        -1.6291    0.5301    4.1914 C.ar      1 <0>        -0.0426
     18 C17        -0.4968    0.8763    5.0859 C.ar      1 <0>        -0.0488
     19 C18         0.5527   -0.0225    5.2653 C.ar      1 <0>        -0.1101
     20 C19         1.6035    0.3049    6.0981 C.ar      1 <0>        -0.1154
     21 C20         1.6160    1.5226    6.7541 C.ar      1 <0>        -0.1173
     22 C21         0.5765    2.4184    6.5800 C.ar      1 <0>        -0.1178
     23 C22        -0.4765    2.1037    5.7451 C.ar      1 <0>        -0.1051
     24 O1          0.4538   -4.5499   -2.2751 O.3       1 <0>        -0.3123
     25 C23         0.6439   -5.8309   -1.6708 C.3       1 <0>         0.0672
     26 C24         0.7432   -6.8995   -2.7612 C.3       1 <0>        -0.0916
     27 C25         0.9467   -8.2709   -2.1142 C.3       1 <0>        -0.7244
     28 P1          1.0651   -9.5442   -3.4135 P.3       1 <0>         2.2576
     29 O2         -0.1825   -9.4706   -4.3219 O.2       1 <0>        -1.0945
     30 O3          2.3339   -9.2995   -4.2604 O.3       1 <0>        -1.0953
     31 O4          1.1475  -11.0005   -2.7319 O.3       1 <0>        -0.9054
     32 C26        -0.2892    1.0224   -2.6168 C.3       1 <0>        -0.0628
     33 C27         1.0709    1.4443   -3.1097 C.2       1 <0>         0.5138
     34 O5          2.0589    1.1931   -2.4527 O.2       1 <0>        -0.5287
     35 N2          1.1895    2.1009   -4.2808 N.am      1 <0>        -0.8626
     36 H1          0.6160    2.8384    0.2094 H         1 <0>         0.0773
     37 H2         -0.9678    2.7886   -0.6015 H         1 <0>         0.0818
     38 H3         -0.8542    2.4863    1.1489 H         1 <0>         0.0678
     39 H4          0.1014   -2.0734   -3.0282 H         1 <0>         0.1277
     40 H5          0.5647   -4.6649    0.3360 H         1 <0>         0.1287
     41 H6          0.3725   -2.7590    1.8663 H         1 <0>         0.1170
     42 H7          0.5853   -0.6147    2.8239 H         1 <0>         0.0993
     43 H8          0.4912    1.1364    2.5187 H         1 <0>         0.0973
     44 H9         -2.2633   -0.4034    1.0051 H         1 <0>         0.1291
     45 H10        -4.5647   -0.3756    1.8736 H         1 <0>         0.1243
     46 H11        -4.9961    0.2322    4.2185 H         1 <0>         0.1247
     47 H12        -3.1259    0.8157    5.7061 H         1 <0>         0.1245
     48 H13         0.5437   -0.9737    4.7538 H         1 <0>         0.1225
     49 H14         2.4173   -0.3912    6.2381 H         1 <0>         0.1251
     50 H15         2.4402    1.7747    7.4048 H         1 <0>         0.1229
     51 H16         0.5911    3.3676    7.0949 H         1 <0>         0.1241
     52 H17        -1.2854    2.8058    5.6064 H         1 <0>         0.1236
     53 H18         1.5629   -5.8233   -1.0846 H         1 <0>         0.0538
     54 H19        -0.2009   -6.0541   -1.0191 H         1 <0>         0.0537
     55 H20        -0.1757   -6.9070   -3.3474 H         1 <0>         0.0847
     56 H21         1.5880   -6.6762   -3.4129 H         1 <0>         0.0819
     57 H22         1.8657   -8.2634   -1.5281 H         1 <0>         0.0717
     58 H23         0.1020   -8.4942   -1.4626 H         1 <0>         0.0700
     59 H24         1.2125  -11.7282   -3.3654 H         1 <0>         0.4124
     60 H25        -0.7465    0.3504   -3.3429 H         1 <0>         0.1020
     61 H26        -0.9190    1.9030   -2.4899 H         1 <0>         0.0975
     62 H27         0.3993    2.3019   -4.8063 H         1 <0>         0.3997
     63 H28         2.0650    2.3725   -4.5981 H         1 <0>         0.3992
@<TRIPOS>BOND
     1    1    2 1
     2    1   36 1
     3    1   37 1
     4    1   38 1
     5    2   10 1
     6    2    3 2
     7    3    4 1
     8    3   32 1
     9    4    9 ar
    10    4    5 ar
    11    5    6 ar
    12    5   39 1
    13    6    7 ar
    14    6   24 1
    15    7    8 ar
    16    7   40 1
    17    8    9 ar
    18    8   41 1
    19    9   10 1
    20   10   11 1
    21   11   12 1
    22   11   42 1
    23   11   43 1
    24   12   17 ar
    25   12   13 ar
    26   13   14 ar
    27   13   44 1
    28   14   15 ar
    29   14   45 1
    30   15   16 ar
    31   15   46 1
    32   16   17 ar
    33   16   47 1
    34   17   18 1
    35   18   23 ar
    36   18   19 ar
    37   19   20 ar
    38   19   48 1
    39   20   21 ar
    40   20   49 1
    41   21   22 ar
    42   21   50 1
    43   22   23 ar
    44   22   51 1
    45   23   52 1
    46   24   25 1
    47   25   26 1
    48   25   53 1
    49   25   54 1
    50   26   27 1
    51   26   55 1
    52   26   56 1
    53   27   28 1
    54   27   57 1
    55   27   58 1
    56   28   29 2
    57   28   30 1
    58   28   31 1
    59   31   59 1
    60   32   33 1
    61   32   60 1
    62   32   61 1
    63   33   34 2
    64   33   35 am
    65   35   62 1
    66   35   63 1
@<TRIPOS>MOLECULE
CHEMBL423205__1
   62    65     0     0     0
SMALL
USER_CHARGES

@<TRIPOS>ATOM
      1 C1         -0.3580    2.3495    0.1881 C.3       1 <0>        -0.0923
      2 C2         -0.1755    0.8775   -0.0780 C.2       1 <0>         0.1030
      3 C3         -0.1466    0.3122   -1.2953 C.2       1 <0>        -0.1632
      4 C4          0.0495   -1.1258   -1.0958 C.ar      1 <0>        -0.0451
      5 C5          0.1604   -2.2178   -1.9595 C.ar      1 <0>        -0.1254
      6 C6          0.3453   -3.4829   -1.4390 C.ar      1 <0>         0.1246
      7 C7          0.4206   -3.6710   -0.0612 C.ar      1 <0>        -0.1784
      8 C8          0.3126   -2.6017    0.7995 C.ar      1 <0>        -0.0887
      9 C9          0.1265   -1.3189    0.2949 C.ar      1 <0>         0.0604
     10 N1         -0.0090   -0.0799    0.8849 N.pl3     1 <0>        -0.4783
     11 C10         0.0184    0.1730    2.3277 C.3       1 <0>         0.1563
     12 C11        -1.3908    0.1904    2.8615 C.ar      1 <0>        -0.0937
     13 C12        -2.4473   -0.1359    2.0352 C.ar      1 <0>        -0.0974
     14 C13        -3.7410   -0.1204    2.5238 C.ar      1 <0>        -0.1121
     15 C14        -3.9839    0.2213    3.8422 C.ar      1 <0>        -0.1181
     16 C15        -2.9351    0.5488    4.6772 C.ar      1 <0>        -0.1057
     17 C16        -1.6291    0.5301    4.1914 C.ar      1 <0>        -0.0450
     18 C17        -0.4968    0.8763    5.0859 C.ar      1 <0>        -0.0462
     19 C18         0.5527   -0.0225    5.2653 C.ar      1 <0>        -0.1089
     20 C19         1.6035    0.3049    6.0981 C.ar      1 <0>        -0.1149
     21 C20         1.6160    1.5226    6.7541 C.ar      1 <0>        -0.1188
     22 C21         0.5765    2.4184    6.5800 C.ar      1 <0>        -0.1194
     23 C22        -0.4765    2.1037    5.7451 C.ar      1 <0>        -0.1062
     24 O1          0.4538   -4.5499   -2.2751 O.3       1 <0>        -0.3118
     25 C23         0.6439   -5.8309   -1.6708 C.3       1 <0>         0.0654
     26 C24         0.7432   -6.8995   -2.7612 C.3       1 <0>        -0.0847
     27 C25         0.9467   -8.2709   -2.1142 C.3       1 <0>        -0.7205
     28 P1          1.0651   -9.5442   -3.4135 P.3       1 <0>         2.2102
     29 O2         -0.2000   -9.4696   -4.3346 O.2       1 <0>        -1.1798
     30 O3          2.3517   -9.2960   -4.2722 O.3       1 <0>        -1.1807
     31 O4          1.1453  -10.9613   -2.7502 O.3       1 <0>        -1.1851
     32 C26        -0.2892    1.0224   -2.6168 C.3       1 <0>        -0.0618
     33 C27         1.0709    1.4443   -3.1097 C.2       1 <0>         0.5136
     34 O5          2.0589    1.1931   -2.4527 O.2       1 <0>        -0.5271
     35 N2          1.1895    2.1009   -4.2808 N.am      1 <0>        -0.8636
     36 H1          0.6160    2.8384    0.2094 H         1 <0>         0.0748
     37 H2         -0.9678    2.7886   -0.6015 H         1 <0>         0.0798
     38 H3         -0.8542    2.4863    1.1489 H         1 <0>         0.0658
     39 H4          0.1014   -2.0734   -3.0282 H         1 <0>         0.1267
     40 H5          0.5647   -4.6649    0.3360 H         1 <0>         0.1316
     41 H6          0.3725   -2.7590    1.8663 H         1 <0>         0.1152
     42 H7          0.5853   -0.6147    2.8239 H         1 <0>         0.0989
     43 H8          0.4912    1.1364    2.5187 H         1 <0>         0.0952
     44 H9         -2.2633   -0.4034    1.0051 H         1 <0>         0.1310
     45 H10        -4.5647   -0.3756    1.8736 H         1 <0>         0.1243
     46 H11        -4.9961    0.2322    4.2185 H         1 <0>         0.1235
     47 H12        -3.1259    0.8157    5.7061 H         1 <0>         0.1232
     48 H13         0.5437   -0.9737    4.7538 H         1 <0>         0.1241
     49 H14         2.4173   -0.3912    6.2381 H         1 <0>         0.1254
     50 H15         2.4402    1.7747    7.4048 H         1 <0>         0.1219
     51 H16         0.5911    3.3676    7.0949 H         1 <0>         0.1227
     52 H17        -1.2854    2.8058    5.6064 H         1 <0>         0.1228
     53 H18         1.5629   -5.8233   -1.0846 H         1 <0>         0.0501
     54 H19        -0.2009   -6.0541   -1.0191 H         1 <0>         0.0504
     55 H20        -0.1757   -6.9070   -3.3474 H         1 <0>         0.0744
     56 H21         1.5880   -6.6762   -3.4129 H         1 <0>         0.0709
     57 H22         1.8657   -8.2634   -1.5281 H         1 <0>         0.0460
     58 H23         0.1020   -8.4942   -1.4626 H         1 <0>         0.0460
     59 H24        -0.7465    0.3504   -3.3429 H         1 <0>         0.1023
     60 H25        -0.9190    1.9030   -2.4899 H         1 <0>         0.0956
     61 H26         0.3993    2.3019   -4.8063 H         1 <0>         0.3989
     62 H27         2.0650    2.3725   -4.5981 H         1 <0>         0.3981
@<TRIPOS>BOND
     1    1    2 1
     2    1   36 1
     3    1   37 1
     4    1   38 1
     5    2   10 1
     6    2    3 2
     7    3    4 1
     8    3   32 1
     9    4    9 ar
    10    4    5 ar
    11    5    6 ar
    12    5   39 1
    13    6    7 ar
    14    6   24 1
    15    7    8 ar
    16    7   40 1
    17    8    9 ar
    18    8   41 1
    19    9   10 1
    20   10   11 1
    21   11   12 1
    22   11   42 1
    23   11   43 1
    24   12   17 ar
    25   12   13 ar
    26   13   14 ar
    27   13   44 1
    28   14   15 ar
    29   14   45 1
    30   15   16 ar
    31   15   46 1
    32   16   17 ar
    33   16   47 1
    34   17   18 1
    35   18   23 ar
    36   18   19 ar
    37   19   20 ar
    38   19   48 1
    39   20   21 ar
    40   20   49 1
    41   21   22 ar
    42   21   50 1
    43   22   23 ar
    44   22   51 1
    45   23   52 1
    46   24   25 1
    47   25   26 1
    48   25   53 1
    49   25   54 1
    50   26   27 1
    51   26   55 1
    52   26   56 1
    53   27   28 1
    54   27   57 1
    55   27   58 1
    56   28   29 2
    57   28   30 1
    58   28   31 1
    59   32   33 1
    60   32   59 1
    61   32   60 1
    62   33   34 2
    63   33   35 am
    64   35   61 1
    65   35   62 1
@<TRIPOS>MOLECULE
CHEMBL150101
   55    58     0     0     0
SMALL
USER_CHARGES

@<TRIPOS>ATOM
      1 C1         -0.0184    1.5028    0.0103 C.3       1 <0>        -0.1026
      2 C2          0.0021   -0.0041    0.0020 C.2       1 <0>         0.1184
      3 C3          0.0079   -0.7686   -1.1014 C.2       1 <0>        -0.1667
      4 C4          0.0296   -2.1641   -0.6562 C.ar      1 <0>        -0.0458
      5 C5          0.0435   -3.3930   -1.3198 C.ar      1 <0>        -0.1128
      6 C6          0.0629   -4.5631   -0.5876 C.ar      1 <0>         0.1015
      7 C7          0.0681   -4.5202    0.8044 C.ar      1 <0>        -0.1805
      8 C8          0.0545   -3.3144    1.4689 C.ar      1 <0>        -0.0868
      9 C9          0.0354   -2.1241    0.7494 C.ar      1 <0>         0.0751
     10 N1          0.0234   -0.7953    1.1178 N.pl3     1 <0>        -0.4719
     11 C10         0.0297   -0.3042    2.4980 C.3       1 <0>         0.1510
     12 C11        -1.3887   -0.1553    2.9847 C.ar      1 <0>        -0.1096
     13 C12        -2.0598    1.0405    2.8009 C.ar      1 <0>        -0.1018
     14 C13        -3.3616    1.1841    3.2450 C.ar      1 <0>        -0.1146
     15 C14        -3.9987    0.1336    3.8743 C.ar      1 <0>        -0.1025
     16 C15        -3.3279   -1.0730    4.0617 C.ar      1 <0>        -0.0428
     17 C16        -2.0178   -1.2137    3.6078 C.ar      1 <0>        -0.0886
     18 C17        -4.0074   -2.2056    4.7378 C.ar      1 <0>        -0.0475
     19 C18        -3.3345   -3.4105    4.9304 C.ar      1 <0>        -0.1094
     20 C19        -3.9713   -4.4605    5.5603 C.ar      1 <0>        -0.1165
     21 C20        -5.2749   -4.3185    6.0002 C.ar      1 <0>        -0.1173
     22 C21        -5.9477   -3.1247    5.8117 C.ar      1 <0>        -0.1169
     23 C22        -5.3188   -2.0663    5.1877 C.ar      1 <0>        -0.1102
     24 O1          0.0766   -5.7626   -1.2282 O.3       1 <0>        -0.3202
     25 C23         0.0964   -6.9345   -0.4107 C.3       1 <0>         0.0291
     26 C24        -0.0059   -0.2832   -2.5281 C.3       1 <0>        -0.0543
     27 C25         1.4102   -0.1010   -3.0103 C.2       1 <0>         0.5120
     28 O2          2.3391   -0.3415   -2.2686 O.2       1 <0>        -0.5135
     29 N2          1.6444    0.3294   -4.2659 N.am      1 <0>        -0.5861
     30 N3          2.9279    0.4946   -4.7030 N.3       1 <0>        -0.6048
     31 H1          1.0042    1.8801    0.0026 H         1 <0>         0.0821
     32 H2         -0.5455    1.8639   -0.8728 H         1 <0>         0.0843
     33 H3         -0.5286    1.8543    0.9071 H         1 <0>         0.0706
     34 H4          0.0388   -3.4276   -2.3992 H         1 <0>         0.1249
     35 H5          0.0826   -5.4414    1.3679 H         1 <0>         0.1299
     36 H6          0.0587   -3.2928    2.5486 H         1 <0>         0.1184
     37 H7          0.5593   -1.0138    3.1337 H         1 <0>         0.0958
     38 H8          0.5308    0.6630    2.5373 H         1 <0>         0.0993
     39 H9         -1.5650    1.8649    2.3090 H         1 <0>         0.1252
     40 H10        -3.8806    2.1200    3.0995 H         1 <0>         0.1280
     41 H11        -5.0152    0.2469    4.2210 H         1 <0>         0.1272
     42 H12        -1.4944   -2.1481    3.7472 H         1 <0>         0.1237
     43 H13        -2.3167   -3.5225    4.5870 H         1 <0>         0.1229
     44 H14        -3.4508   -5.3949    5.7098 H         1 <0>         0.1248
     45 H15        -5.7695   -5.1428    6.4924 H         1 <0>         0.1238
     46 H16        -6.9656   -3.0193    6.1568 H         1 <0>         0.1252
     47 H17        -5.8435   -1.1332    5.0450 H         1 <0>         0.1252
     48 H18         0.9891   -6.9262    0.2146 H         1 <0>         0.0534
     49 H19        -0.7906   -6.9507    0.2226 H         1 <0>         0.0533
     50 H20         0.1057   -7.8204   -1.0457 H         1 <0>         0.0980
     51 H21        -0.5122   -1.0161   -3.1563 H         1 <0>         0.0997
     52 H22        -0.5337    0.6689   -2.5829 H         1 <0>         0.1005
     53 H23         0.9014    0.5218   -4.8591 H         1 <0>         0.3992
     54 H24         3.4571   -0.3586   -4.6017 H         1 <0>         0.3455
     55 H25         2.9456    0.8198   -5.6580 H         1 <0>         0.3556
@<TRIPOS>BOND
     1    1    2 1
     2    1   31 1
     3    1   32 1
     4    1   33 1
     5    2   10 1
     6    2    3 2
     7    3    4 1
     8    3   26 1
     9    4    9 ar
    10    4    5 ar
    11    5    6 ar
    12    5   34 1
    13    6    7 ar
    14    6   24 1
    15    7    8 ar
    16    7   35 1
    17    8    9 ar
    18    8   36 1
    19    9   10 1
    20   10   11 1
    21   11   12 1
    22   11   37 1
    23   11   38 1
    24   12   17 ar
    25   12   13 ar
    26   13   14 ar
    27   13   39 1
    28   14   15 ar
    29   14   40 1
    30   15   16 ar
    31   15   41 1
    32   16   17 ar
    33   16   18 1
    34   17   42 1
    35   18   23 ar
    36   18   19 ar
    37   19   20 ar
    38   19   43 1
    39   20   21 ar
    40   20   44 1
    41   21   22 ar
    42   21   45 1
    43   22   23 ar
    44   22   46 1
    45   23   47 1
    46   24   25 1
    47   25   48 1
    48   25   49 1
    49   25   50 1
    50   26   27 1
    51   26   51 1
    52   26   52 1
    53   27   28 2
    54   27   29 am
    55   29   30 1
    56   29   53 1
    57   30   54 1
    58   30   55 1
@<TRIPOS>MOLECULE
CHEMBL149952
   60    63     0     0     0
SMALL
USER_CHARGES

@<TRIPOS>ATOM
      1 C1         -0.4453    1.7580   -0.0031 C.3       1 <0>        -0.1500
      2 C2         -0.2961    0.2366   -0.0658 C.3       1 <0>        -0.1224
      3 C3         -1.6792   -0.4145   -0.0016 C.3       1 <0>        -0.0617
      4 C4         -1.5323   -1.9130   -0.0634 C.2       1 <0>         0.1228
      5 C5         -1.5195   -2.6657   -1.2228 C.2       1 <0>        -0.2080
      6 C6         -1.3549   -4.0694   -0.7985 C.ar      1 <0>        -0.0965
      7 C7         -1.2816   -4.0409    0.6020 C.ar      1 <0>         0.1320
      8 N1         -1.3876   -2.7232    1.0012 N.pl3     1 <0>        -0.4591
      9 C8         -1.3512   -2.2696    2.3937 C.3       1 <0>         0.1515
     10 C9         -2.7474   -2.2754    2.9606 C.ar      1 <0>        -0.0975
     11 C10        -3.7916   -2.7940    2.2216 C.ar      1 <0>        -0.0957
     12 C11        -5.0735   -2.8000    2.7407 C.ar      1 <0>        -0.1093
     13 C12        -5.3168   -2.2873    4.0024 C.ar      1 <0>        -0.1161
     14 C13        -4.2803   -1.7668    4.7500 C.ar      1 <0>        -0.1059
     15 C14        -2.9858   -1.7626    4.2339 C.ar      1 <0>        -0.0438
     16 C15        -1.8663   -1.2089    5.0352 C.ar      1 <0>        -0.0461
     17 C16        -0.7476   -1.9931    5.3090 C.ar      1 <0>        -0.1107
     18 C17         0.2910   -1.4728    6.0544 C.ar      1 <0>        -0.1159
     19 C18         0.2226   -0.1756    6.5295 C.ar      1 <0>        -0.1187
     20 C19        -0.8858    0.6072    6.2611 C.ar      1 <0>        -0.1176
     21 C20        -1.9276    0.0990    5.5118 C.ar      1 <0>        -0.1048
     22 C21        -1.1229   -5.2336    1.3009 C.ar      1 <0>        -0.1787
     23 C22        -1.0388   -6.4285    0.6180 C.ar      1 <0>        -0.0512
     24 C23        -1.1110   -6.4590   -0.7655 C.ar      1 <0>        -0.2468
     25 C24        -1.2692   -5.2842   -1.4803 C.ar      1 <0>         0.1859
     26 O1         -1.3404   -5.3135   -2.8368 O.3       1 <0>        -0.2779
     27 C25        -1.2450   -6.5940   -3.4639 C.3       1 <0>        -0.0072
     28 C26        -1.3434   -6.4298   -4.9587 C.2       1 <0>         0.5020
     29 O2         -1.4823   -5.3192   -5.4422 O.co2     1 <0>        -0.6682
     30 O3         -1.2840   -7.4076   -5.6846 O.co2     1 <0>        -0.6881
     31 C27        -1.6447   -2.1710   -2.5928 C.2       1 <0>         0.4439
     32 O4         -0.6600   -1.7848   -3.1918 O.2       1 <0>        -0.4089
     33 C28        -2.9805   -2.1401   -3.2553 C.2       1 <0>         0.4974
     34 O5         -3.9767   -2.4330   -2.6267 O.2       1 <0>        -0.5136
     35 N2         -3.0815   -1.7871   -4.5521 N.am      1 <0>        -0.8208
     36 H1          0.5401    2.2219   -0.0489 H         1 <0>         0.0573
     37 H2         -1.0469    2.0992   -0.8456 H         1 <0>         0.0565
     38 H3         -0.9351    2.0369    0.9298 H         1 <0>         0.0532
     39 H4          0.1938   -0.0423   -0.9988 H         1 <0>         0.0746
     40 H5          0.3055   -0.1045    0.7766 H         1 <0>         0.0621
     41 H6         -2.1691   -0.1356    0.9313 H         1 <0>         0.0796
     42 H7         -2.2809   -0.0733   -0.8440 H         1 <0>         0.0864
     43 H8         -0.7192   -2.9389    2.9774 H         1 <0>         0.1030
     44 H9         -0.9460   -1.2585    2.4360 H         1 <0>         0.1024
     45 H10        -3.6073   -3.1955    1.2361 H         1 <0>         0.1320
     46 H11        -5.8877   -3.2060    2.1588 H         1 <0>         0.1255
     47 H12        -6.3198   -2.2941    4.4028 H         1 <0>         0.1240
     48 H13        -4.4713   -1.3664    5.7347 H         1 <0>         0.1236
     49 H14        -0.6934   -3.0062    4.9388 H         1 <0>         0.1234
     50 H15         1.1584   -2.0799    6.2675 H         1 <0>         0.1244
     51 H16         1.0375    0.2276    7.1124 H         1 <0>         0.1219
     52 H17        -0.9342    1.6193    6.6348 H         1 <0>         0.1233
     53 H18        -2.7906    0.7125    5.2990 H         1 <0>         0.1236
     54 H19        -1.0653   -5.2234    2.3793 H         1 <0>         0.1156
     55 H20        -0.9150   -7.3502    1.1670 H         1 <0>         0.1250
     56 H21        -1.0437   -7.4020   -1.2875 H         1 <0>         0.1307
     57 H22        -0.2889   -7.0522   -3.2109 H         1 <0>         0.0604
     58 H23        -2.0572   -7.2313   -3.1142 H         1 <0>         0.0604
     59 H24        -2.2854   -1.5531   -5.0545 H         1 <0>         0.4111
     60 H25        -3.9502   -1.7670   -4.9831 H         1 <0>         0.4054
@<TRIPOS>BOND
     1    1    2 1
     2    1   36 1
     3    1   37 1
     4    1   38 1
     5    2    3 1
     6    2   39 1
     7    2   40 1
     8    3    4 1
     9    3   41 1
    10    3   42 1
    11    4    8 1
    12    4    5 2
    13    5    6 1
    14    5   31 1
    15    6   25 ar
    16    6    7 ar
    17    7    8 1
    18    7   22 ar
    19    8    9 1
    20    9   10 1
    21    9   43 1
    22    9   44 1
    23   10   15 ar
    24   10   11 ar
    25   11   12 ar
    26   11   45 1
    27   12   13 ar
    28   12   46 1
    29   13   14 ar
    30   13   47 1
    31   14   15 ar
    32   14   48 1
    33   15   16 1
    34   16   21 ar
    35   16   17 ar
    36   17   18 ar
    37   17   49 1
    38   18   19 ar
    39   18   50 1
    40   19   20 ar
    41   19   51 1
    42   20   21 ar
    43   20   52 1
    44   21   53 1
    45   22   23 ar
    46   22   54 1
    47   23   24 ar
    48   23   55 1
    49   24   25 ar
    50   24   56 1
    51   25   26 1
    52   26   27 1
    53   27   28 1
    54   27   57 1
    55   27   58 1
    56   28   29 2
    57   28   30 1
    58   31   32 2
    59   31   33 1
    60   33   34 2
    61   33   35 am
    62   35   59 1
    63   35   60 1
@<TRIPOS>MOLECULE
CHEMBL345986
   47    49     0     0     0
SMALL
USER_CHARGES

@<TRIPOS>ATOM
      1 C1         -0.0128    1.4965    0.0300 C.3       1 <0>        -0.1509
      2 C2          0.0101   -0.0331    0.0044 C.3       1 <0>        -0.0687
      3 C3          0.7122   -0.5042   -1.2431 C.2       1 <0>         0.1198
      4 C4          0.0995   -0.7532   -2.4570 C.2       1 <0>        -0.2067
      5 C5          1.1699   -1.1883   -3.3748 C.ar      1 <0>        -0.0970
      6 C6          2.3538   -1.1635   -2.6229 C.ar      1 <0>         0.1346
      7 N1          2.0325   -0.7414   -1.3479 N.pl3     1 <0>        -0.4570
      8 C7          2.9970   -0.5776   -0.2574 C.3       1 <0>         0.1493
      9 C8          3.1161   -1.8713    0.5063 C.ar      1 <0>        -0.1013
     10 C9          2.2834   -2.1180    1.5821 C.ar      1 <0>        -0.0978
     11 C10         2.3921   -3.3043    2.2830 C.ar      1 <0>        -0.1059
     12 C11         3.3339   -4.2446    1.9091 C.ar      1 <0>        -0.1026
     13 C12         4.1673   -3.9983    0.8328 C.ar      1 <0>        -0.0336
     14 C13         4.0539   -2.8131    0.1277 C.ar      1 <0>        -0.0861
     15 Cl1         5.3502   -5.1787    0.3626 Cl        1 <0>        -0.0671
     16 C14         3.5529   -1.5290   -3.2269 C.ar      1 <0>        -0.1814
     17 C15         3.5709   -1.9104   -4.5518 C.ar      1 <0>        -0.0502
     18 C16         2.4026   -1.9356   -5.2965 C.ar      1 <0>        -0.2474
     19 C17         1.1988   -1.5763   -4.7152 C.ar      1 <0>         0.1867
     20 O1          0.0529   -1.6012   -5.4447 O.3       1 <0>        -0.2781
     21 C18         0.1617   -2.0091   -6.8099 C.3       1 <0>        -0.0073
     22 C19        -1.2001   -1.9750   -7.4544 C.2       1 <0>         0.5021
     23 O2         -2.1736   -1.6330   -6.8049 O.co2     1 <0>        -0.6684
     24 O3         -1.3284   -2.2894   -8.6254 O.co2     1 <0>        -0.6879
     25 C20        -1.3221   -0.6143   -2.7683 C.2       1 <0>         0.4439
     26 O4         -1.7679    0.4653   -3.1052 O.2       1 <0>        -0.4093
     27 C21        -2.2254   -1.7972   -2.6727 C.2       1 <0>         0.4968
     28 O5         -1.8019   -2.8513   -2.2449 O.2       1 <0>        -0.5128
     29 N2         -3.5120   -1.6958   -3.0613 N.am      1 <0>        -0.8209
     30 H1          1.0092    1.8753    0.0232 H         1 <0>         0.0559
     31 H2         -0.5434    1.8666   -0.8472 H         1 <0>         0.0679
     32 H3         -0.5206    1.8372    0.9323 H         1 <0>         0.0648
     33 H4          0.5407   -0.4033    0.8817 H         1 <0>         0.0791
     34 H5         -1.0119   -0.4120    0.0112 H         1 <0>         0.0871
     35 H6          3.9693   -0.3082   -0.6697 H         1 <0>         0.1024
     36 H7          2.6560    0.2105    0.4139 H         1 <0>         0.1032
     37 H8          1.5480   -1.3834    1.8751 H         1 <0>         0.1309
     38 H9          1.7414   -3.4965    3.1233 H         1 <0>         0.1350
     39 H10         3.4192   -5.1712    2.4573 H         1 <0>         0.1344
     40 H11         4.7013   -2.6221   -0.7154 H         1 <0>         0.1351
     41 H12         4.4704   -1.5136   -2.6575 H         1 <0>         0.1153
     42 H13         4.5054   -2.1921   -5.0141 H         1 <0>         0.1255
     43 H14         2.4313   -2.2364   -6.3333 H         1 <0>         0.1309
     44 H15         0.8313   -1.3314   -7.3394 H         1 <0>         0.0607
     45 H16         0.5600   -3.0227   -6.8556 H         1 <0>         0.0605
     46 H17        -3.8504   -0.8535   -3.4032 H         1 <0>         0.4111
     47 H18        -4.0995   -2.4651   -2.9991 H         1 <0>         0.4055
@<TRIPOS>BOND
     1    1    2 1
     2    1   30 1
     3    1   31 1
     4    1   32 1
     5    2    3 1
     6    2   33 1
     7    2   34 1
     8    3    7 1
     9    3    4 2
    10    4    5 1
    11    4   25 1
    12    5   19 ar
    13    5    6 ar
    14    6    7 1
    15    6   16 ar
    16    7    8 1
    17    8    9 1
    18    8   35 1
    19    8   36 1
    20    9   14 ar
    21    9   10 ar
    22   10   11 ar
    23   10   37 1
    24   11   12 ar
    25   11   38 1
    26   12   13 ar
    27   12   39 1
    28   13   14 ar
    29   13   15 1
    30   14   40 1
    31   16   17 ar
    32   16   41 1
    33   17   18 ar
    34   17   42 1
    35   18   19 ar
    36   18   43 1
    37   19   20 1
    38   20   21 1
    39   21   22 1
    40   21   44 1
    41   21   45 1
    42   22   23 2
    43   22   24 1
    44   25   26 2
    45   25   27 1
    46   27   28 2
    47   27   29 am
    48   29   46 1
    49   29   47 1
@<TRIPOS>MOLECULE
CHEMBL149128
   47    50     0     0     0
SMALL
USER_CHARGES

@<TRIPOS>ATOM
      1 C1         -0.0044    1.4139    0.1071 C.3       1 <0>         0.0291
      2 O1          0.0041   -0.0116    0.2064 O.3       1 <0>        -0.3200
      3 C2         -1.1965   -0.6440    0.1159 C.ar      1 <0>         0.1004
      4 C3         -2.3594    0.0992   -0.0710 C.ar      1 <0>        -0.1795
      5 C4         -3.5830   -0.5250   -0.1651 C.ar      1 <0>        -0.0878
      6 C5         -3.6657   -1.9105   -0.0735 C.ar      1 <0>         0.0750
      7 C6         -2.4933   -2.6637    0.1152 C.ar      1 <0>        -0.0474
      8 C7         -1.2568   -2.0202    0.2040 C.ar      1 <0>        -0.1097
      9 C8         -2.9161   -4.0653    0.1692 C.2       1 <0>        -0.1543
     10 C9         -4.2499   -4.0795    0.0180 C.2       1 <0>         0.1407
     11 N1         -4.7165   -2.8019   -0.1284 N.pl3     1 <0>        -0.4674
     12 C10        -6.1225   -2.4353   -0.3149 C.3       1 <0>         0.1451
     13 C11        -6.4447   -2.4122   -1.7868 C.ar      1 <0>        -0.1116
     14 C12        -6.2792   -1.2472   -2.5124 C.ar      1 <0>        -0.0992
     15 C13        -6.5747   -1.2260   -3.8626 C.ar      1 <0>        -0.1200
     16 C14        -7.0353   -2.3699   -4.4874 C.ar      1 <0>        -0.1114
     17 C15        -7.1999   -3.5351   -3.7620 C.ar      1 <0>        -0.1214
     18 C16        -6.9003   -3.5574   -2.4127 C.ar      1 <0>        -0.0986
     19 C17        -5.1065   -5.3194    0.0107 C.3       1 <0>        -0.1067
     20 C18        -6.3453   -5.3275    0.9085 C.3       1 <0>        -0.1767
     21 C19        -5.1253   -6.1725    1.2806 C.3       1 <0>        -0.1579
     22 C20        -2.0227   -5.2641    0.3578 C.3       1 <0>        -0.0630
     23 C21        -1.7775   -5.4814    1.8288 C.2       1 <0>         0.5157
     24 O2         -2.2788   -4.7361    2.6437 O.2       1 <0>        -0.5295
     25 N2         -1.0010   -6.5039    2.2387 N.am      1 <0>        -0.8620
     26 H1          1.0147    1.7903    0.1950 H         1 <0>         0.0981
     27 H2         -0.4188    1.7086   -0.8570 H         1 <0>         0.0532
     28 H3         -0.6158    1.8302    0.9078 H         1 <0>         0.0533
     29 H4         -2.3009    1.1752   -0.1424 H         1 <0>         0.1301
     30 H5         -4.4785    0.0611   -0.3097 H         1 <0>         0.1194
     31 H6         -0.3538   -2.5957    0.3449 H         1 <0>         0.1255
     32 H7         -6.7580   -3.1665    0.1847 H         1 <0>         0.1030
     33 H8         -6.3002   -1.4480    0.1115 H         1 <0>         0.0926
     34 H9         -5.9193   -0.3536   -2.0243 H         1 <0>         0.1198
     35 H10        -6.4461   -0.3157   -4.4293 H         1 <0>         0.1238
     36 H11        -7.2668   -2.3531   -5.5421 H         1 <0>         0.1234
     37 H12        -7.5601   -4.4286   -4.2501 H         1 <0>         0.1239
     38 H13        -7.0254   -4.4687   -1.8468 H         1 <0>         0.1225
     39 H14        -5.1740   -5.8385   -0.9454 H         1 <0>         0.1236
     40 H15        -6.5408   -4.4361    1.5045 H         1 <0>         0.0967
     41 H16        -7.2283   -5.8519    0.5431 H         1 <0>         0.1029
     42 H17        -5.2057   -7.2529    1.1600 H         1 <0>         0.1018
     43 H18        -4.5182   -5.8370    2.1214 H         1 <0>         0.1050
     44 H19        -2.5043   -6.1461   -0.0644 H         1 <0>         0.0998
     45 H20        -1.0723   -5.0922   -0.1475 H         1 <0>         0.0994
     46 H21        -0.6001   -7.1000    1.5869 H         1 <0>         0.4002
     47 H22        -0.8432   -6.6438    3.1855 H         1 <0>         0.4000
@<TRIPOS>BOND
     1    1    2 1
     2    1   26 1
     3    1   27 1
     4    1   28 1
     5    2    3 1
     6    3    8 ar
     7    3    4 ar
     8    4    5 ar
     9    4   29 1
    10    5    6 ar
    11    5   30 1
    12    6   11 1
    13    6    7 ar
    14    7    8 ar
    15    7    9 1
    16    8   31 1
    17    9   10 2
    18    9   22 1
    19   10   11 1
    20   10   19 1
    21   11   12 1
    22   12   13 1
    23   12   32 1
    24   12   33 1
    25   13   18 ar
    26   13   14 ar
    27   14   15 ar
    28   14   34 1
    29   15   16 ar
    30   15   35 1
    31   16   17 ar
    32   16   36 1
    33   17   18 ar
    34   17   37 1
    35   18   38 1
    36   19   21 1
    37   19   20 1
    38   19   39 1
    39   20   21 1
    40   20   40 1
    41   20   41 1
    42   21   42 1
    43   21   43 1
    44   22   23 1
    45   22   44 1
    46   22   45 1
    47   23   24 2
    48   23   25 am
    49   25   46 1
    50   25   47 1
@<TRIPOS>MOLECULE
CHEMBL159838
   77    79     0     0     0
SMALL
USER_CHARGES

@<TRIPOS>ATOM
      1 C1         -0.0187    1.5258    0.0104 C.3       1 <0>        -0.1544
      2 C2          0.0021   -0.0041    0.0020 C.3       1 <0>        -0.1261
      3 C3          0.7421   -0.5109    1.2415 C.3       1 <0>        -0.1210
      4 C4          0.7628   -2.0407    1.2331 C.3       1 <0>        -0.1211
      5 C5          1.5028   -2.5476    2.4727 C.3       1 <0>        -0.1182
      6 C6          1.5236   -4.0774    2.4642 C.3       1 <0>        -0.1174
      7 C7          2.2636   -4.5842    3.7038 C.3       1 <0>        -0.1337
      8 C8          2.2843   -6.1141    3.6954 C.3       1 <0>         0.1144
      9 N1          2.9929   -6.5994    4.8822 N.am      1 <0>        -0.6092
     10 C9          2.2546   -6.8604    6.1204 C.3       1 <0>         0.0678
     11 C10         4.3239   -6.8057    4.8350 C.2       1 <0>         0.4960
     12 O1          4.9351   -6.5896    3.8100 O.2       1 <0>        -0.5111
     13 C11         5.0528   -7.3049    6.0559 C.3       1 <0>         0.0660
     14 N2          6.4784   -7.4467    5.7496 N.pl3     1 <0>        -0.4738
     15 C12         6.9522   -8.6283    5.2563 C.2       1 <0>         0.1452
     16 C13         8.2678   -8.7477    4.9776 C.2       1 <0>        -0.2406
     17 C14         9.1215   -7.6381    5.2065 C.2       1 <0>         0.5218
     18 O2         10.3156   -7.7204    4.9621 O.2       1 <0>        -0.5047
     19 N3          8.6095   -6.4992    5.6920 N.2       1 <0>        -0.5820
     20 C15         7.3212   -6.3984    5.9533 C.2       1 <0>         0.4019
     21 S1          6.6815   -4.8827    6.5842 S.3       1 <0>        -0.0119
     22 C16         8.1349   -3.8024    6.6882 C.3       1 <0>        -0.0516
     23 C17         7.7219   -2.4546    7.2211 C.ar      1 <0>        -0.0982
     24 C18         7.3248   -1.4589    6.3481 C.ar      1 <0>        -0.0656
     25 C19         6.9454   -0.2226    6.8356 C.ar      1 <0>        -0.1531
     26 C20         6.9631    0.0185    8.1989 C.ar      1 <0>         0.1123
     27 C21         7.3610   -0.9795    9.0723 C.ar      1 <0>        -0.1535
     28 C22         7.7350   -2.2166    8.5828 C.ar      1 <0>        -0.0663
     29 F1          6.5929    1.2268    8.6765 F         1 <0>        -0.1353
     30 C23         8.8206  -10.0394    4.4325 C.3       1 <0>         0.0039
     31 C24         8.8800   -9.9653    2.9285 C.ar      1 <0>        -0.2290
     32 C25         7.8026  -10.3697    2.1562 C.ar      1 <0>         0.1925
     33 N4          7.8883  -10.2915    0.8383 N.ar      1 <0>        -0.5240
     34 C26         8.9856   -9.8339    0.2575 C.ar      1 <0>         0.4978
     35 N5         10.0322   -9.4401    0.9649 N.ar      1 <0>        -0.5654
     36 C27        10.0112   -9.4859    2.2870 C.ar      1 <0>         0.2060
     37 O3          9.0390   -9.7674   -1.0944 O.3       1 <0>        -0.2901
     38 C28        10.2461   -9.2661   -1.6721 C.3       1 <0>         0.0702
     39 C29        10.1199   -9.2655   -3.1969 C.3       1 <0>        -0.1533
     40 H1          1.0039    1.9031    0.0027 H         1 <0>         0.0534
     41 H2         -0.5459    1.8868   -0.8726 H         1 <0>         0.0536
     42 H3         -0.5289    1.8773    0.9072 H         1 <0>         0.0533
     43 H4         -1.0205   -0.3814    0.0098 H         1 <0>         0.0603
     44 H5          0.5123   -0.3556   -0.8948 H         1 <0>         0.0604
     45 H6          1.7647   -0.1336    1.2338 H         1 <0>         0.0606
     46 H7          0.2319   -0.1594    2.1383 H         1 <0>         0.0605
     47 H8         -0.2598   -2.4180    1.2409 H         1 <0>         0.0611
     48 H9          1.2730   -2.3923    0.3363 H         1 <0>         0.0613
     49 H10         2.5254   -2.1703    2.4649 H         1 <0>         0.0612
     50 H11         0.9926   -2.1961    3.3695 H         1 <0>         0.0609
     51 H12         0.5010   -4.4547    2.4720 H         1 <0>         0.0632
     52 H13         2.0337   -4.4289    1.5675 H         1 <0>         0.0642
     53 H14         3.2861   -4.2070    3.6960 H         1 <0>         0.0676
     54 H15         1.7534   -4.2327    4.6006 H         1 <0>         0.0641
     55 H16         1.2617   -6.4914    3.7031 H         1 <0>         0.0817
     56 H17         2.7945   -6.4656    2.7986 H         1 <0>         0.0860
     57 H18         1.9105   -7.8947    6.1271 H         1 <0>         0.0654
     58 H19         2.9079   -6.6893    6.9759 H         1 <0>         0.0727
     59 H20         1.3960   -6.1915    6.1794 H         1 <0>         0.0818
     60 H21         4.9254   -6.5931    6.8715 H         1 <0>         0.1318
     61 H22         4.6466   -8.2724    6.3513 H         1 <0>         0.1357
     62 H23         6.2817   -9.4587    5.0911 H         1 <0>         0.1740
     63 H24         8.8713   -4.2475    7.3573 H         1 <0>         0.1150
     64 H25         8.5706   -3.6830    5.6963 H         1 <0>         0.1137
     65 H26         7.3115   -1.6471    5.2847 H         1 <0>         0.1378
     66 H27         6.6356    0.5552    6.1534 H         1 <0>         0.1406
     67 H28         7.3755   -0.7924   10.1358 H         1 <0>         0.1411
     68 H29         8.0411   -2.9967    9.2642 H         1 <0>         0.1388
     69 H30         9.8233  -10.2011    4.8282 H         1 <0>         0.0988
     70 H31         8.1748  -10.8654    4.7304 H         1 <0>         0.0881
     71 H32         6.9044  -10.7444    2.6244 H         1 <0>         0.1711
     72 H33        10.8665   -9.1581    2.8590 H         1 <0>         0.1772
     73 H34        10.4215   -8.2490   -1.3216 H         1 <0>         0.0698
     74 H35        11.0813   -9.9012   -1.3769 H         1 <0>         0.0706
     75 H36         9.2847   -8.6304   -3.4921 H         1 <0>         0.0667
     76 H37        11.0406   -8.8831   -3.6375 H         1 <0>         0.0837
     77 H38         9.9445  -10.2826   -3.5473 H         1 <0>         0.0671
@<TRIPOS>BOND
     1    1    2 1
     2    1   40 1
     3    1   41 1
     4    1   42 1
     5    2    3 1
     6    2   43 1
     7    2   44 1
     8    3    4 1
     9    3   45 1
    10    3   46 1
    11    4    5 1
    12    4   47 1
    13    4   48 1
    14    5    6 1
    15    5   49 1
    16    5   50 1
    17    6    7 1
    18    6   51 1
    19    6   52 1
    20    7    8 1
    21    7   53 1
    22    7   54 1
    23    8    9 1
    24    8   55 1
    25    8   56 1
    26    9   10 1
    27    9   11 am
    28   10   57 1
    29   10   58 1
    30   10   59 1
    31   11   12 2
    32   11   13 1
    33   13   14 1
    34   13   60 1
    35   13   61 1
    36   14   20 1
    37   14   15 1
    38   15   16 2
    39   15   62 1
    40   16   17 1
    41   16   30 1
    42   17   18 2
    43   17   19 1
    44   19   20 2
    45   20   21 1
    46   21   22 1
    47   22   23 1
    48   22   63 1
    49   22   64 1
    50   23   28 ar
    51   23   24 ar
    52   24   25 ar
    53   24   65 1
    54   25   26 ar
    55   25   66 1
    56   26   27 ar
    57   26   29 1
    58   27   28 ar
    59   27   67 1
    60   28   68 1
    61   30   31 1
    62   30   69 1
    63   30   70 1
    64   31   36 ar
    65   31   32 ar
    66   32   33 ar
    67   32   71 1
    68   33   34 ar
    69   34   35 ar
    70   34   37 1
    71   35   36 ar
    72   36   72 1
    73   37   38 1
    74   38   39 1
    75   38   73 1
    76   38   74 1
    77   39   75 1
    78   39   76 1
    79   39   77 1
@<TRIPOS>MOLECULE
CHEMBL178260
   60    63     0     0     0
SMALL
USER_CHARGES

@<TRIPOS>ATOM
      1 C1          0.0896    1.4837    0.0121 C.3       1 <0>        -0.1079
      2 C2          0.0467   -0.0227   -0.0004 C.2       1 <0>         0.1235
      3 C3         -0.0725   -0.8102   -1.1306 C.2       1 <0>        -0.2173
      4 C4         -0.0706   -2.2074   -0.6567 C.ar      1 <0>        -0.0821
      5 C5         -0.1618   -3.4509   -1.3101 C.ar      1 <0>         0.1882
      6 C6         -0.1332   -4.6126   -0.5999 C.ar      1 <0>        -0.2369
      7 C7         -0.0118   -4.5818    0.8031 C.ar      1 <0>         0.0029
      8 C8          0.0193   -5.7714    1.5498 C.ar      1 <0>        -0.1112
      9 C9          0.1376   -5.7154    2.9055 C.ar      1 <0>        -0.1069
     10 C10         0.2281   -4.4931    3.5662 C.ar      1 <0>        -0.1239
     11 C11         0.2012   -3.3199    2.8735 C.ar      1 <0>        -0.1139
     12 C12         0.0809   -3.3398    1.4765 C.ar      1 <0>        -0.0488
     13 C13         0.0507   -2.1394    0.7297 C.ar      1 <0>         0.1219
     14 N1          0.1241   -0.8124    1.0855 N.pl3     1 <0>        -0.4287
     15 C14         0.2634   -0.3257    2.4603 C.3       1 <0>         0.0923
     16 C15        -1.1140   -0.2722    3.1244 C.3       1 <0>        -0.1079
     17 C16        -1.9830    0.7670    2.4132 C.3       1 <0>        -0.1186
     18 C17        -3.3603    0.8205    3.0773 C.3       1 <0>        -0.1185
     19 C18        -3.2024    1.2087    4.5487 C.3       1 <0>        -0.1209
     20 C19        -2.3334    0.1695    5.2599 C.3       1 <0>        -0.1182
     21 C20        -0.9560    0.1160    4.5958 C.3       1 <0>        -0.1120
     22 O1         -0.2801   -3.4925   -2.6627 O.3       1 <0>        -0.2939
     23 C21        -0.3684   -4.7845   -3.2667 C.3       1 <0>         0.0675
     24 C22        -0.4936   -4.6330   -4.7609 C.2       1 <0>         0.4616
     25 O2         -0.5058   -3.5316   -5.2575 O.2       1 <0>        -0.4781
     26 O3         -0.5914   -5.7217   -5.5400 O.3       1 <0>        -0.3491
     27 C23        -0.7072   -5.5038   -6.9475 C.3       1 <0>         0.0351
     28 C24        -0.1797   -0.3511   -2.5156 C.2       1 <0>         0.4427
     29 O4         -1.2654   -0.0576   -2.9762 O.2       1 <0>        -0.4074
     30 C25         1.0436   -0.2432   -3.3625 C.2       1 <0>         0.4919
     31 O5          2.1381   -0.4400   -2.8758 O.2       1 <0>        -0.5047
     32 N2          0.9337    0.0727   -4.6681 N.am      1 <0>        -0.8260
     33 H1          1.1269    1.8178   -0.0098 H         1 <0>         0.0875
     34 H2         -0.4349    1.8694   -0.8620 H         1 <0>         0.0854
     35 H3         -0.3921    1.8534    0.9173 H         1 <0>         0.0843
     36 H4         -0.2041   -5.5598   -1.1137 H         1 <0>         0.1376
     37 H5         -0.0506   -6.7267    1.0508 H         1 <0>         0.1292
     38 H6          0.1613   -6.6320    3.4762 H         1 <0>         0.1240
     39 H7          0.3205   -4.4746    4.6421 H         1 <0>         0.1228
     40 H8          0.2718   -2.3787    3.3983 H         1 <0>         0.1276
     41 H9          0.9109   -1.0001    3.0206 H         1 <0>         0.1008
     42 H10         0.7007    0.6727    2.4498 H         1 <0>         0.1005
     43 H11        -1.5887   -1.2510    3.0558 H         1 <0>         0.0840
     44 H12        -1.5083    1.7458    2.4818 H         1 <0>         0.0659
     45 H13        -2.0955    0.4904    1.3649 H         1 <0>         0.0665
     46 H14        -3.9794    1.5609    2.5706 H         1 <0>         0.0641
     47 H15        -3.8350   -0.1583    3.0087 H         1 <0>         0.0619
     48 H16        -2.7277    2.1875    4.6173 H         1 <0>         0.0622
     49 H17        -4.1836    1.2468    5.0218 H         1 <0>         0.0625
     50 H18        -2.2208    0.4461    6.3082 H         1 <0>         0.0654
     51 H19        -2.8080   -0.8093    5.1913 H         1 <0>         0.0631
     52 H20        -0.3369   -0.6244    5.1025 H         1 <0>         0.0659
     53 H21        -0.4813    1.0948    4.6644 H         1 <0>         0.0677
     54 H22         0.5294   -5.3568   -3.0335 H         1 <0>         0.1114
     55 H23        -1.2432   -5.3073   -2.8800 H         1 <0>         0.1114
     56 H24        -0.7782   -6.4637   -7.4591 H         1 <0>         0.1075
     57 H25        -1.6021   -4.9161   -7.1518 H         1 <0>         0.0640
     58 H26         0.1705   -4.9656   -7.3053 H         1 <0>         0.0635
     59 H27         0.0592    0.2300   -5.0571 H         1 <0>         0.4107
     60 H28         1.7292    0.1429   -5.2188 H         1 <0>         0.4079
@<TRIPOS>BOND
     1    1    2 1
     2    1   33 1
     3    1   34 1
     4    1   35 1
     5    2   14 1
     6    2    3 2
     7    3    4 1
     8    3   28 1
     9    4   13 ar
    10    4    5 ar
    11    5    6 ar
    12    5   22 1
    13    6    7 ar
    14    6   36 1
    15    7   12 ar
    16    7    8 ar
    17    8    9 ar
    18    8   37 1
    19    9   10 ar
    20    9   38 1
    21   10   11 ar
    22   10   39 1
    23   11   12 ar
    24   11   40 1
    25   12   13 ar
    26   13   14 1
    27   14   15 1
    28   15   16 1
    29   15   41 1
    30   15   42 1
    31   16   21 1
    32   16   17 1
    33   16   43 1
    34   17   18 1
    35   17   44 1
    36   17   45 1
    37   18   19 1
    38   18   46 1
    39   18   47 1
    40   19   20 1
    41   19   48 1
    42   19   49 1
    43   20   21 1
    44   20   50 1
    45   20   51 1
    46   21   52 1
    47   21   53 1
    48   22   23 1
    49   23   24 1
    50   23   54 1
    51   23   55 1
    52   24   25 2
    53   24   26 1
    54   26   27 1
    55   27   56 1
    56   27   57 1
    57   27   58 1
    58   28   29 2
    59   28   30 1
    60   30   31 2
    61   30   32 am
    62   32   59 1
    63   32   60 1
@<TRIPOS>MOLECULE
CHEMBL87741
   82    84     0     0     0
SMALL
USER_CHARGES

@<TRIPOS>ATOM
      1 C1         -0.0187    1.5258    0.0104 C.3       1 <0>        -0.1543
      2 C2          0.0021   -0.0041    0.0020 C.3       1 <0>        -0.1261
      3 C3         -1.4333   -0.5336    0.0129 C.3       1 <0>        -0.1213
      4 C4         -1.4126   -2.0635    0.0045 C.3       1 <0>        -0.1212
      5 C5         -2.8479   -2.5931    0.0153 C.3       1 <0>        -0.1206
      6 C6         -2.8272   -4.1229    0.0069 C.3       1 <0>        -0.1206
      7 C7         -4.2626   -4.6525    0.0178 C.3       1 <0>        -0.1203
      8 C8         -4.2418   -6.1823    0.0094 C.3       1 <0>        -0.1205
      9 C9         -5.6772   -6.7119    0.0202 C.3       1 <0>        -0.1181
     10 C10        -5.6565   -8.2417    0.0118 C.3       1 <0>        -0.1172
     11 C11        -7.0918   -8.7713    0.0227 C.3       1 <0>        -0.1338
     12 C12        -7.0711  -10.3012    0.0143 C.3       1 <0>         0.1145
     13 N1         -8.4455  -10.8082    0.0247 N.am      1 <0>        -0.6092
     14 C13        -9.1448  -11.0550   -1.2388 C.3       1 <0>         0.0676
     15 C14        -9.0666  -11.0478    1.1966 C.2       1 <0>         0.4961
     16 O1         -8.4876  -10.8435    2.2425 O.2       1 <0>        -0.5115
     17 C15       -10.4804  -11.5694    1.2073 C.3       1 <0>         0.0659
     18 N2        -10.9253  -11.7458    2.5919 N.pl3     1 <0>        -0.4740
     19 C16       -10.7164  -12.9372    3.2251 C.2       1 <0>         0.1471
     20 C17       -11.1306  -13.0886    4.5012 C.2       1 <0>        -0.2416
     21 C18       -11.7727  -12.0016    5.1481 C.2       1 <0>         0.5215
     22 O2        -12.1565  -12.1130    6.3025 O.2       1 <0>        -0.5033
     23 N3        -11.9551  -10.8519    4.4848 N.2       1 <0>        -0.5812
     24 C19       -11.5392  -10.7197    3.2408 C.2       1 <0>         0.4019
     25 S1        -11.7895   -9.1907    2.4017 S.3       1 <0>        -0.0113
     26 C20       -12.6228   -8.1475    3.6298 C.3       1 <0>        -0.0516
     27 C21       -12.8988   -6.7916    3.0327 C.ar      1 <0>        -0.0984
     28 C22       -11.9599   -5.7832    3.1453 C.ar      1 <0>        -0.0655
     29 C23       -12.2117   -4.5396    2.5978 C.ar      1 <0>        -0.1530
     30 C24       -13.4050   -4.3037    1.9363 C.ar      1 <0>         0.1124
     31 C25       -14.3447   -5.3145    1.8242 C.ar      1 <0>        -0.1535
     32 C26       -14.0884   -6.5589    2.3680 C.ar      1 <0>        -0.0663
     33 F1        -13.6525   -3.0882    1.4011 F         1 <0>        -0.1352
     34 C27       -10.9147  -14.3918    5.2265 C.3       1 <0>        -0.0032
     35 C28        -9.6430  -14.3140    6.0314 C.ar      1 <0>        -0.1862
     36 C29        -8.4288  -14.6883    5.4778 C.ar      1 <0>         0.1505
     37 N4         -7.3328  -14.6065    6.2150 N.ar      1 <0>        -0.5197
     38 C30        -7.3867  -14.1761    7.4595 C.ar      1 <0>         0.2885
     39 N5         -8.5231  -13.8119    8.0188 N.ar      1 <0>        -0.5176
     40 C31        -9.6587  -13.8611    7.3412 C.ar      1 <0>         0.1656
     41 H1          1.0039    1.9031    0.0027 H         1 <0>         0.0535
     42 H2         -0.5459    1.8868   -0.8726 H         1 <0>         0.0533
     43 H3         -0.5289    1.8773    0.9072 H         1 <0>         0.0534
     44 H4          0.5123   -0.3556   -0.8948 H         1 <0>         0.0602
     45 H5          0.5293   -0.3651    0.8851 H         1 <0>         0.0603
     46 H6         -1.9435   -0.1821    0.9097 H         1 <0>         0.0606
     47 H7         -1.9605   -0.1726   -0.8702 H         1 <0>         0.0605
     48 H8         -0.9024   -2.4150   -0.8923 H         1 <0>         0.0604
     49 H9         -0.8854   -2.4246    0.8875 H         1 <0>         0.0606
     50 H10        -3.3581   -2.2415    0.9121 H         1 <0>         0.0604
     51 H11        -3.3751   -2.2320   -0.8677 H         1 <0>         0.0603
     52 H12        -2.3170   -4.4744   -0.8899 H         1 <0>         0.0604
     53 H13        -2.3000   -4.4840    0.8900 H         1 <0>         0.0606
     54 H14        -4.7728   -4.3010    0.9146 H         1 <0>         0.0604
     55 H15        -4.7898   -4.2914   -0.8653 H         1 <0>         0.0603
     56 H16        -3.7316   -6.5338   -0.8874 H         1 <0>         0.0609
     57 H17        -3.7146   -6.5434    0.8924 H         1 <0>         0.0611
     58 H18        -6.1874   -6.3604    0.9170 H         1 <0>         0.0611
     59 H19        -6.2044   -6.3508   -0.8628 H         1 <0>         0.0608
     60 H20        -5.1463   -8.5933   -0.8850 H         1 <0>         0.0631
     61 H21        -5.1293   -8.6028    0.8949 H         1 <0>         0.0641
     62 H22        -7.6020   -8.4198    0.9195 H         1 <0>         0.0677
     63 H23        -7.6190   -8.4102   -0.8604 H         1 <0>         0.0642
     64 H24        -6.5609  -10.6527   -0.8825 H         1 <0>         0.0817
     65 H25        -6.5439  -10.6622    0.8973 H         1 <0>         0.0858
     66 H26        -8.9626  -12.0803   -1.5607 H         1 <0>         0.0654
     67 H27       -10.2149  -10.9033   -1.0974 H         1 <0>         0.0728
     68 H28        -8.7772  -10.3649   -1.9983 H         1 <0>         0.0820
     69 H29       -11.1341  -10.8574    0.7035 H         1 <0>         0.1322
     70 H30       -10.5181  -12.5273    0.6886 H         1 <0>         0.1356
     71 H31       -10.2254  -13.7499    2.7106 H         1 <0>         0.1737
     72 H32       -13.5633   -8.6133    3.9239 H         1 <0>         0.1151
     73 H33       -11.9833   -8.0356    4.5053 H         1 <0>         0.1139
     74 H34       -11.0293   -5.9673    3.6616 H         1 <0>         0.1378
     75 H35       -11.4782   -3.7519    2.6862 H         1 <0>         0.1407
     76 H36       -15.2759   -5.1315    1.3088 H         1 <0>         0.1411
     77 H37       -14.8193   -7.3487    2.2768 H         1 <0>         0.1388
     78 H38       -11.7560  -14.5801    5.8936 H         1 <0>         0.1001
     79 H39       -10.8371  -15.2024    4.5020 H         1 <0>         0.0888
     80 H40        -8.3778  -15.0421    4.4587 H         1 <0>         0.1621
     81 H41        -6.4754  -14.1207    8.0364 H         1 <0>         0.1958
     82 H42       -10.5858  -13.5566    7.8039 H         1 <0>         0.1730
@<TRIPOS>BOND
     1    1    2 1
     2    1   41 1
     3    1   42 1
     4    1   43 1
     5    2    3 1
     6    2   44 1
     7    2   45 1
     8    3    4 1
     9    3   46 1
    10    3   47 1
    11    4    5 1
    12    4   48 1
    13    4   49 1
    14    5    6 1
    15    5   50 1
    16    5   51 1
    17    6    7 1
    18    6   52 1
    19    6   53 1
    20    7    8 1
    21    7   54 1
    22    7   55 1
    23    8    9 1
    24    8   56 1
    25    8   57 1
    26    9   10 1
    27    9   58 1
    28    9   59 1
    29   10   11 1
    30   10   60 1
    31   10   61 1
    32   11   12 1
    33   11   62 1
    34   11   63 1
    35   12   13 1
    36   12   64 1
    37   12   65 1
    38   13   14 1
    39   13   15 am
    40   14   66 1
    41   14   67 1
    42   14   68 1
    43   15   16 2
    44   15   17 1
    45   17   18 1
    46   17   69 1
    47   17   70 1
    48   18   24 1
    49   18   19 1
    50   19   20 2
    51   19   71 1
    52   20   21 1
    53   20   34 1
    54   21   22 2
    55   21   23 1
    56   23   24 2
    57   24   25 1
    58   25   26 1
    59   26   27 1
    60   26   72 1
    61   26   73 1
    62   27   32 ar
    63   27   28 ar
    64   28   29 ar
    65   28   74 1
    66   29   30 ar
    67   29   75 1
    68   30   31 ar
    69   30   33 1
    70   31   32 ar
    71   31   76 1
    72   32   77 1
    73   34   35 1
    74   34   78 1
    75   34   79 1
    76   35   40 ar
    77   35   36 ar
    78   36   37 ar
    79   36   80 1
    80   37   38 ar
    81   38   39 ar
    82   38   81 1
    83   39   40 ar
    84   40   82 1
@<TRIPOS>MOLECULE
CHEMBL477692
   55    57     0     0     0
SMALL
USER_CHARGES

@<TRIPOS>ATOM
      1 C1         -0.4580    1.5571   -0.4125 C.3       1 <0>        -0.1463
      2 C2         -0.3336    0.0374   -0.3600 C.3       1 <0>        -0.0660
      3 H1         -0.0448   -0.2841   -1.3905 H         1 <0>         0.0529
      4 C3         -1.6312   -0.6623   -0.0337 C.3       1 <0>        -0.0576
      5 H2         -1.5093   -1.7305   -0.3341 H         1 <0>         0.0569
      6 C4         -2.8043   -0.1339   -0.8575 C.3       1 <0>        -0.1134
      7 C5         -3.9954   -1.0812   -0.7136 C.3       1 <0>        -0.0828
      8 C6         -4.0802   -1.6989    0.6456 C.2       1 <0>        -0.1724
      9 C7         -3.2241   -1.5363    1.6051 C.2       1 <0>        -0.1051
     10 C8         -1.9991   -0.6719    1.4423 C.3       1 <0>        -0.0061
     11 C9         -0.8386   -1.2054    2.2733 C.3       1 <0>        -0.1022
     12 C10         0.4163   -0.3719    2.0227 C.3       1 <0>        -0.0952
     13 C11         0.8141   -0.3790    0.5535 C.3       1 <0>        -0.0394
     14 C12         1.3070   -1.7755    0.1582 C.3       1 <0>        -0.1212
     15 C13         1.9772    0.6092    0.3589 C.3       1 <0>         0.0022
     16 C14         3.1248    0.2167    1.2534 C.2       1 <0>        -0.4307
     17 C15         4.1260   -0.5488    0.7700 C.2       1 <0>         0.2562
     18 C16         5.2579   -0.9354    1.6519 C.2       1 <0>         0.3883
     19 O1          6.1593   -1.6241    1.2167 O.2       1 <0>        -0.4508
     20 C17         5.2872   -0.4855    3.0467 C.2       1 <0>        -0.3317
     21 C18         4.2858    0.2796    3.5302 C.2       1 <0>         0.1164
     22 C19         3.1568    0.6712    2.6466 C.2       1 <0>         0.4265
     23 O2          2.2579    1.3641    3.0804 O.2       1 <0>        -0.4902
     24 O3          4.3123    0.6941    4.8176 O.3       1 <0>        -0.2936
     25 C20         5.4302    0.2847    5.6080 C.3       1 <0>         0.0182
     26 O4          4.0988   -0.9643   -0.5170 O.3       1 <0>        -0.6258
     27 C21        -2.3756    0.7197    1.9506 C.3       1 <0>        -0.1402
     28 C22        -3.4686   -2.2234    2.9194 C.3       1 <0>        -0.1177
     29 H3          0.4168    1.9763   -0.9096 H         1 <0>         0.0562
     30 H4         -1.3561    1.8293   -0.9669 H         1 <0>         0.0446
     31 H5         -0.5234    1.9515    0.6016 H         1 <0>         0.0587
     32 H6         -3.0918    0.8676   -0.5495 H         1 <0>         0.0657
     33 H7         -2.5079   -0.0984   -1.9143 H         1 <0>         0.0586
     34 H8         -4.9165   -0.5259   -0.9104 H         1 <0>         0.0630
     35 H9         -3.9095   -1.8754   -1.4604 H         1 <0>         0.0634
     36 H10        -4.9311   -2.3383    0.8494 H         1 <0>         0.0925
     37 H11        -1.0900   -1.1365    3.3380 H         1 <0>         0.0517
     38 H12        -0.6544   -2.2503    2.0257 H         1 <0>         0.0555
     39 H13         0.2688    0.6516    2.3651 H         1 <0>         0.0740
     40 H14         1.2411   -0.7990    2.6108 H         1 <0>         0.0519
     41 H15         1.6546   -1.7592   -0.8748 H         1 <0>         0.0532
     42 H16         2.1272   -2.0701    0.8129 H         1 <0>         0.0530
     43 H17         0.4899   -2.4903    0.2553 H         1 <0>         0.0284
     44 H18         2.3029    0.5868   -0.6810 H         1 <0>         0.0584
     45 H19         1.6454    1.6156    0.6141 H         1 <0>         0.0468
     46 H20         6.1098   -0.7665    3.6876 H         1 <0>         0.1313
     47 H21         6.3495    0.6617    5.1599 H         1 <0>         0.0575
     48 H22         5.3274    0.6839    6.6170 H         1 <0>         0.0992
     49 H23         5.4663   -0.8039    5.6499 H         1 <0>         0.0574
     50 H24        -3.1594    1.1375    1.3188 H         1 <0>         0.0503
     51 H25        -2.7364    0.6464    2.9765 H         1 <0>         0.0468
     52 H26        -1.4995    1.3673    1.9190 H         1 <0>         0.0700
     53 H27        -4.3948   -2.7955    2.8636 H         1 <0>         0.0534
     54 H28        -2.6389   -2.8957    3.1379 H         1 <0>         0.0660
     55 H29        -3.5495   -1.4773    3.7100 H         1 <0>         0.0632
@<TRIPOS>BOND
     1    1    2 1
     2    1   29 1
     3    1   30 1
     4    1   31 1
     5    2    3 1
     6    2   13 1
     7    2    4 1
     8    4    5 1
     9    4   10 1
    10    4    6 1
    11    6    7 1
    12    6   32 1
    13    6   33 1
    14    7    8 1
    15    7   34 1
    16    7   35 1
    17    8    9 2
    18    8   36 1
    19    9   10 1
    20    9   28 1
    21   10   11 1
    22   10   27 1
    23   11   12 1
    24   11   37 1
    25   11   38 1
    26   12   13 1
    27   12   39 1
    28   12   40 1
    29   13   14 1
    30   13   15 1
    31   14   41 1
    32   14   42 1
    33   14   43 1
    34   15   16 1
    35   15   44 1
    36   15   45 1
    37   16   22 1
    38   16   17 2
    39   17   18 1
    40   17   26 1
    41   18   19 2
    42   18   20 1
    43   20   21 2
    44   20   46 1
    45   21   22 1
    46   21   24 1
    47   22   23 2
    48   24   25 1
    49   25   47 1
    50   25   48 1
    51   25   49 1
    52   27   50 1
    53   27   51 1
    54   27   52 1
    55   28   53 1
    56   28   54 1
    57   28   55 1
@<TRIPOS>MOLECULE
CHEMBL342549
   58    61     0     0     0
SMALL
USER_CHARGES

@<TRIPOS>ATOM
      1 C1         -0.0187    1.5258    0.0104 C.3       1 <0>        -0.1486
      2 C2          0.0021   -0.0041    0.0020 C.3       1 <0>        -0.0664
      3 C3          0.7074   -0.4901   -1.2379 C.2       1 <0>         0.1093
      4 C4          0.1119   -0.7431   -2.4141 C.2       1 <0>        -0.1647
      5 C5          1.1581   -1.1897   -3.3372 C.ar      1 <0>        -0.0494
      6 C6          1.1638   -1.5898   -4.6753 C.ar      1 <0>        -0.1251
      7 C7          2.3522   -1.9625   -5.2706 C.ar      1 <0>         0.1235
      8 C8          3.5392   -1.9406   -4.5426 C.ar      1 <0>        -0.1731
      9 C9          3.5453   -1.5478   -3.2230 C.ar      1 <0>        -0.0894
     10 C10         2.3584   -1.1681   -2.6049 C.ar      1 <0>         0.0678
     11 N1          2.0503   -0.7331   -1.3331 N.pl3     1 <0>        -0.4716
     12 C11         3.0164   -0.5599   -0.2455 C.3       1 <0>         0.1515
     13 C12         3.1330   -1.8453    0.5324 C.ar      1 <0>        -0.1104
     14 C13         2.3010   -2.0781    1.6115 C.ar      1 <0>        -0.1053
     15 C14         2.4079   -3.2572    2.3250 C.ar      1 <0>        -0.1229
     16 C15         3.3465   -4.2038    1.9591 C.ar      1 <0>        -0.1140
     17 C16         4.1778   -3.9715    0.8794 C.ar      1 <0>        -0.1178
     18 C17         4.0680   -2.7942    0.1633 C.ar      1 <0>        -0.0957
     19 O1          2.3638   -2.3531   -6.5732 O.3       1 <0>        -0.3283
     20 C18         3.6271   -2.7258   -7.1275 C.3       1 <0>         0.1213
     21 C19         3.4448   -3.1259   -8.5689 C.ar      1 <0>        -0.0575
     22 C20         2.1919   -3.0860   -9.1444 C.ar      1 <0>        -0.1210
     23 C21         2.0226   -3.4531  -10.4676 C.ar      1 <0>        -0.1293
     24 C22         3.1074   -3.8627  -11.2233 C.ar      1 <0>        -0.1414
     25 C23         4.3658   -3.9080  -10.6612 C.ar      1 <0>        -0.0847
     26 C24         4.5453   -3.5328   -9.3271 C.ar      1 <0>        -0.1328
     27 C25         5.8897   -3.5719   -8.7206 C.2       1 <0>         0.5202
     28 O2          6.8511   -3.9285   -9.3870 O.co2     1 <0>        -0.6839
     29 O3          6.0427   -3.2477   -7.5514 O.co2     1 <0>        -0.6840
     30 C26        -1.3551   -0.5960   -2.7258 C.3       1 <0>        -0.0612
     31 C27        -1.6241    0.7983   -3.2304 C.2       1 <0>         0.5131
     32 O4         -0.7142    1.5942   -3.3274 O.2       1 <0>        -0.5241
     33 N2         -2.8760    1.1608   -3.5739 N.am      1 <0>        -0.8644
     34 H1          1.0039    1.9031    0.0027 H         1 <0>         0.0533
     35 H2         -0.5459    1.8868   -0.8726 H         1 <0>         0.0675
     36 H3         -0.5289    1.8773    0.9072 H         1 <0>         0.0571
     37 H4          0.5293   -0.3651    0.8851 H         1 <0>         0.0722
     38 H5         -1.0205   -0.3814    0.0098 H         1 <0>         0.0839
     39 H6          0.2438   -1.6080   -5.2408 H         1 <0>         0.1217
     40 H7          4.4635   -2.2347   -5.0174 H         1 <0>         0.1442
     41 H8          4.4716   -1.5345   -2.6678 H         1 <0>         0.1170
     42 H9          3.9890   -0.2977   -0.6618 H         1 <0>         0.0949
     43 H10         2.6783    0.2365    0.4174 H         1 <0>         0.0936
     44 H11         1.5677   -1.3385    1.8974 H         1 <0>         0.1213
     45 H12         1.7584   -3.4387    3.1686 H         1 <0>         0.1219
     46 H13         3.4305   -5.1247    2.5170 H         1 <0>         0.1218
     47 H14         4.9114   -4.7109    0.5937 H         1 <0>         0.1249
     48 H15         4.7150   -2.6143   -0.6826 H         1 <0>         0.1240
     49 H16         4.3131   -1.8807   -7.0689 H         1 <0>         0.0863
     50 H17         4.0366   -3.5657   -6.5662 H         1 <0>         0.0863
     51 H18         1.3408   -2.7678   -8.5606 H         1 <0>         0.1240
     52 H19         1.0393   -3.4202  -10.9129 H         1 <0>         0.1127
     53 H20         2.9680   -4.1478  -12.2556 H         1 <0>         0.1135
     54 H21         5.2114   -4.2281  -11.2520 H         1 <0>         0.1271
     55 H22        -1.6386   -1.3199   -3.4898 H         1 <0>         0.0995
     56 H23        -1.9382   -0.7742   -1.8222 H         1 <0>         0.0947
     57 H24        -3.6037    0.5242   -3.4964 H         1 <0>         0.3987
     58 H25        -3.0491    2.0582   -3.8987 H         1 <0>         0.3981
@<TRIPOS>BOND
     1    1    2 1
     2    1   34 1
     3    1   35 1
     4    1   36 1
     5    2    3 1
     6    2   37 1
     7    2   38 1
     8    3   11 1
     9    3    4 2
    10    4    5 1
    11    4   30 1
    12    5   10 ar
    13    5    6 ar
    14    6    7 ar
    15    6   39 1
    16    7    8 ar
    17    7   19 1
    18    8    9 ar
    19    8   40 1
    20    9   10 ar
    21    9   41 1
    22   10   11 1
    23   11   12 1
    24   12   13 1
    25   12   42 1
    26   12   43 1
    27   13   18 ar
    28   13   14 ar
    29   14   15 ar
    30   14   44 1
    31   15   16 ar
    32   15   45 1
    33   16   17 ar
    34   16   46 1
    35   17   18 ar
    36   17   47 1
    37   18   48 1
    38   19   20 1
    39   20   21 1
    40   20   49 1
    41   20   50 1
    42   21   26 ar
    43   21   22 ar
    44   22   23 ar
    45   22   51 1
    46   23   24 ar
    47   23   52 1
    48   24   25 ar
    49   24   53 1
    50   25   26 ar
    51   25   54 1
    52   26   27 1
    53   27   28 2
    54   27   29 1
    55   30   31 1
    56   30   55 1
    57   30   56 1
    58   31   32 2
    59   31   33 am
    60   33   57 1
    61   33   58 1
@<TRIPOS>MOLECULE
CHEMBL161747
   78    80     0     0     0
SMALL
USER_CHARGES

@<TRIPOS>ATOM
      1 C1         -0.0187    1.5258    0.0104 C.3       1 <0>        -0.1543
      2 C2          0.0021   -0.0041    0.0020 C.3       1 <0>        -0.1262
      3 C3         -1.4333   -0.5336    0.0129 C.3       1 <0>        -0.1208
      4 C4         -1.4126   -2.0635    0.0045 C.3       1 <0>        -0.1213
      5 C5         -2.8479   -2.5931    0.0153 C.3       1 <0>        -0.1180
      6 C6         -2.8272   -4.1229    0.0069 C.3       1 <0>        -0.1176
      7 C7         -4.2626   -4.6525    0.0178 C.3       1 <0>        -0.1335
      8 C8         -4.2418   -6.1823    0.0094 C.3       1 <0>         0.1144
      9 N1         -5.6162   -6.6894    0.0198 N.am      1 <0>        -0.6095
     10 C9         -6.3155   -6.9361   -1.2437 C.3       1 <0>         0.0679
     11 C10        -6.2373   -6.9289    1.1917 C.2       1 <0>         0.4958
     12 O1         -5.6584   -6.7247    2.2376 O.2       1 <0>        -0.5105
     13 C11        -7.6511   -7.4505    1.2024 C.3       1 <0>         0.0662
     14 N2         -8.0961   -7.6270    2.5870 N.pl3     1 <0>        -0.4739
     15 C12        -7.8872   -8.8183    3.2202 C.2       1 <0>         0.1419
     16 C13        -8.3014   -8.9698    4.4963 C.2       1 <0>        -0.2397
     17 C14        -8.9435   -7.8828    5.1432 C.2       1 <0>         0.5217
     18 O2         -9.3273   -7.9941    6.2976 O.2       1 <0>        -0.5015
     19 N3         -9.1259   -6.7330    4.4799 N.2       1 <0>        -0.5820
     20 C15        -8.7100   -6.6009    3.2359 C.2       1 <0>         0.4018
     21 S1         -8.9603   -5.0718    2.3968 S.3       1 <0>        -0.0140
     22 C16        -9.7935   -4.0287    3.6249 C.3       1 <0>        -0.0508
     23 C17       -10.0696   -2.6728    3.0278 C.ar      1 <0>        -0.0980
     24 C18        -9.1306   -1.6644    3.1404 C.ar      1 <0>        -0.0657
     25 C19        -9.3824   -0.4208    2.5929 C.ar      1 <0>        -0.1532
     26 C20       -10.5757   -0.1849    1.9314 C.ar      1 <0>         0.1121
     27 C21       -11.5154   -1.1956    1.8193 C.ar      1 <0>        -0.1535
     28 C22       -11.2591   -2.4400    2.3631 C.ar      1 <0>        -0.0664
     29 F1        -10.8232    1.0306    1.3962 F         1 <0>        -0.1354
     30 C23        -8.0854  -10.2730    5.2216 C.3       1 <0>         0.0132
     31 C24        -6.8138  -10.1952    6.0265 C.2       1 <0>        -0.2677
     32 C25        -5.5800  -10.4745    5.4311 C.2       1 <0>         0.2582
     33 N4         -4.4758  -10.4023    6.1464 N.2       1 <0>        -0.5487
     34 C26        -4.5180  -10.0647    7.4375 C.2       1 <0>         0.6244
     35 O3         -3.4814  -10.0050    8.0772 O.2       1 <0>        -0.5363
     36 N5         -5.6881   -9.7887    8.0431 N.am      1 <0>        -0.5074
     37 C27        -6.8498   -9.8468    7.3409 C.2       1 <0>         0.2241
     38 C28        -5.7086   -9.4206    9.4610 C.3       1 <0>         0.0935
     39 C29        -5.5736   -7.9026    9.5958 C.3       1 <0>         0.0583
     40 O4         -6.7204   -7.2698    9.0244 O.3       1 <0>        -0.5669
     41 H1          1.0039    1.9031    0.0027 H         1 <0>         0.0536
     42 H2         -0.5459    1.8868   -0.8726 H         1 <0>         0.0533
     43 H3         -0.5289    1.8773    0.9072 H         1 <0>         0.0533
     44 H4          0.5123   -0.3556   -0.8948 H         1 <0>         0.0604
     45 H5          0.5293   -0.3651    0.8851 H         1 <0>         0.0605
     46 H6         -1.9435   -0.1821    0.9097 H         1 <0>         0.0605
     47 H7         -1.9605   -0.1726   -0.8702 H         1 <0>         0.0605
     48 H8         -0.9024   -2.4150   -0.8923 H         1 <0>         0.0611
     49 H9         -0.8854   -2.4246    0.8875 H         1 <0>         0.0613
     50 H10        -3.3581   -2.2415    0.9121 H         1 <0>         0.0610
     51 H11        -3.3751   -2.2320   -0.8677 H         1 <0>         0.0608
     52 H12        -2.3170   -4.4744   -0.8899 H         1 <0>         0.0632
     53 H13        -2.3000   -4.4840    0.8900 H         1 <0>         0.0643
     54 H14        -4.7728   -4.3010    0.9146 H         1 <0>         0.0675
     55 H15        -4.7898   -4.2914   -0.8653 H         1 <0>         0.0639
     56 H16        -3.7316   -6.5338   -0.8874 H         1 <0>         0.0815
     57 H17        -3.7146   -6.5434    0.8924 H         1 <0>         0.0863
     58 H18        -6.1333   -7.9614   -1.5656 H         1 <0>         0.0653
     59 H19        -7.3856   -6.7844   -1.1023 H         1 <0>         0.0726
     60 H20        -5.9480   -6.2461   -2.0032 H         1 <0>         0.0814
     61 H21        -8.3049   -6.7386    0.6986 H         1 <0>         0.1311
     62 H22        -7.6889   -8.4085    0.6837 H         1 <0>         0.1355
     63 H23        -7.3961   -9.6311    2.7058 H         1 <0>         0.1736
     64 H24       -10.7341   -4.4945    3.9191 H         1 <0>         0.1145
     65 H25        -9.1540   -3.9168    4.5004 H         1 <0>         0.1132
     66 H26        -8.2000   -1.8485    3.6567 H         1 <0>         0.1376
     67 H27        -8.6489    0.3670    2.6813 H         1 <0>         0.1404
     68 H28       -12.4467   -1.0127    1.3039 H         1 <0>         0.1410
     69 H29       -11.9900   -3.2299    2.2719 H         1 <0>         0.1388
     70 H30        -8.9267  -10.4612    5.8887 H         1 <0>         0.0954
     71 H31        -8.0078  -11.0836    4.4971 H         1 <0>         0.0889
     72 H32        -5.5322  -10.7491    4.3877 H         1 <0>         0.1672
     73 H33        -7.7907   -9.6222    7.8212 H         1 <0>         0.1789
     74 H34        -6.6498   -9.7427    9.9064 H         1 <0>         0.1033
     75 H35        -4.8787   -9.9062    9.9744 H         1 <0>         0.1184
     76 H36        -5.4995   -7.6366   10.6502 H         1 <0>         0.0696
     77 H37        -4.6769   -7.5697    9.0732 H         1 <0>         0.0540
     78 H38        -6.7028   -6.3043    9.0745 H         1 <0>         0.3857
@<TRIPOS>BOND
     1    1    2 1
     2    1   41 1
     3    1   42 1
     4    1   43 1
     5    2    3 1
     6    2   44 1
     7    2   45 1
     8    3    4 1
     9    3   46 1
    10    3   47 1
    11    4    5 1
    12    4   48 1
    13    4   49 1
    14    5    6 1
    15    5   50 1
    16    5   51 1
    17    6    7 1
    18    6   52 1
    19    6   53 1
    20    7    8 1
    21    7   54 1
    22    7   55 1
    23    8    9 1
    24    8   56 1
    25    8   57 1
    26    9   10 1
    27    9   11 am
    28   10   58 1
    29   10   59 1
    30   10   60 1
    31   11   12 2
    32   11   13 1
    33   13   14 1
    34   13   61 1
    35   13   62 1
    36   14   20 1
    37   14   15 1
    38   15   16 2
    39   15   63 1
    40   16   17 1
    41   16   30 1
    42   17   18 2
    43   17   19 1
    44   19   20 2
    45   20   21 1
    46   21   22 1
    47   22   23 1
    48   22   64 1
    49   22   65 1
    50   23   28 ar
    51   23   24 ar
    52   24   25 ar
    53   24   66 1
    54   25   26 ar
    55   25   67 1
    56   26   27 ar
    57   26   29 1
    58   27   28 ar
    59   27   68 1
    60   28   69 1
    61   30   31 1
    62   30   70 1
    63   30   71 1
    64   31   37 2
    65   31   32 1
    66   32   33 2
    67   32   72 1
    68   33   34 1
    69   34   35 2
    70   34   36 am
    71   36   37 1
    72   36   38 1
    73   37   73 1
    74   38   39 1
    75   38   74 1
    76   38   75 1
    77   39   40 1
    78   39   76 1
    79   39   77 1
    80   40   78 1
@<TRIPOS>MOLECULE
CHEMBL515637
   53    56     0     0     0
SMALL
USER_CHARGES

@<TRIPOS>ATOM
      1 C1         -0.0190    1.0335   -0.0275 C.3       1 <0>        -0.1511
      2 C2         -0.2526   -0.4464   -0.3375 C.3       1 <0>        -0.0671
      3 C3         -1.7195   -0.6812   -0.5909 C.2       1 <0>         0.1091
      4 C4         -2.6560   -1.0052    0.3733 C.2       1 <0>        -0.1989
      5 C5         -3.9434   -1.1360   -0.3356 C.ar      1 <0>        -0.0792
      6 C6         -5.2512   -1.4454    0.0829 C.ar      1 <0>         0.2005
      7 C7         -6.2738   -1.4977   -0.8150 C.ar      1 <0>        -0.2626
      8 C8         -6.0320   -1.2419   -2.1790 C.ar      1 <0>         0.0181
      9 C9         -7.0763   -1.2918   -3.1175 C.ar      1 <0>        -0.1124
     10 C10        -6.8172   -1.0402   -4.4307 C.ar      1 <0>        -0.1121
     11 C11        -5.5287   -0.7336   -4.8601 C.ar      1 <0>        -0.1384
     12 C12        -4.4922   -0.6765   -3.9772 C.ar      1 <0>        -0.1208
     13 C13        -4.7225   -0.9293   -2.6171 C.ar      1 <0>        -0.0610
     14 C14        -3.6679   -0.8771   -1.6766 C.ar      1 <0>         0.1152
     15 N1         -2.3244   -0.6027   -1.7895 N.pl3     1 <0>        -0.4302
     16 C15        -1.6446   -0.2740   -3.0450 C.3       1 <0>         0.1316
     17 C16        -1.1047   -1.5350   -3.6689 C.ar      1 <0>        -0.1168
     18 C17         0.2130   -1.8987   -3.4630 C.ar      1 <0>        -0.1012
     19 C18         0.7083   -3.0555   -4.0353 C.ar      1 <0>        -0.1209
     20 C19        -0.1142   -3.8487   -4.8133 C.ar      1 <0>        -0.1097
     21 C20        -1.4321   -3.4855   -5.0185 C.ar      1 <0>        -0.1176
     22 C21        -1.9285   -2.3310   -4.4426 C.ar      1 <0>        -0.1059
     23 O1         -5.4958   -1.6948    1.3956 O.3       1 <0>        -0.2763
     24 C22        -6.8435   -2.0029    1.7573 C.3       1 <0>        -0.0081
     25 C23        -6.9216   -2.2478    3.2422 C.2       1 <0>         0.5026
     26 O2         -5.9163   -2.1662    3.9273 O.co2     1 <0>        -0.6681
     27 O3         -7.9901   -2.5277    3.7586 O.co2     1 <0>        -0.6876
     28 C24        -2.4185   -1.1832    1.8060 C.2       1 <0>         0.4431
     29 O4         -2.4548   -0.2243    2.5517 O.2       1 <0>        -0.4053
     30 C25        -2.1316   -2.5418    2.3514 C.2       1 <0>         0.4972
     31 O5         -2.1911   -3.5125    1.6249 O.2       1 <0>        -0.5068
     32 N2         -1.8064   -2.6915    3.6507 N.am      1 <0>        -0.8247
     33 H1          1.0420    1.2033    0.1558 H         1 <0>         0.0653
     34 H2         -0.3426    1.6378   -0.8750 H         1 <0>         0.0558
     35 H3         -0.5900    1.3138    0.8577 H         1 <0>         0.0678
     36 H4          0.3184   -0.7267   -1.2227 H         1 <0>         0.0809
     37 H5          0.0710   -1.0507    0.5100 H         1 <0>         0.0872
     38 H6         -7.2726   -1.7363   -0.4806 H         1 <0>         0.1365
     39 H7         -8.0806   -1.5290   -2.7989 H         1 <0>         0.1266
     40 H8         -7.6225   -1.0795   -5.1492 H         1 <0>         0.1189
     41 H9         -5.3482   -0.5387   -5.9069 H         1 <0>         0.1177
     42 H10        -3.4975   -0.4379   -4.3235 H         1 <0>         0.1269
     43 H11        -2.3516    0.1958   -3.7287 H         1 <0>         0.1102
     44 H12        -0.8224    0.4128   -2.8440 H         1 <0>         0.1027
     45 H13         0.8556   -1.2790   -2.8552 H         1 <0>         0.1237
     46 H14         1.7379   -3.3392   -3.8750 H         1 <0>         0.1241
     47 H15         0.2730   -4.7520   -5.2610 H         1 <0>         0.1228
     48 H16        -2.0746   -4.1050   -5.6266 H         1 <0>         0.1244
     49 H17        -2.9592   -2.0492   -4.5999 H         1 <0>         0.1349
     50 H18        -7.4909   -1.1669    1.4925 H         1 <0>         0.0619
     51 H19        -7.1676   -2.8966    1.2241 H         1 <0>         0.0619
     52 H20        -1.7589   -1.9159    4.2313 H         1 <0>         0.4095
     53 H21        -1.6199   -3.5749    4.0054 H         1 <0>         0.4059
@<TRIPOS>BOND
     1    1    2 1
     2    1   33 1
     3    1   34 1
     4    1   35 1
     5    2    3 1
     6    2   36 1
     7    2   37 1
     8    3   15 1
     9    3    4 2
    10    4    5 1
    11    4   28 1
    12    5   14 ar
    13    5    6 ar
    14    6    7 ar
    15    6   23 1
    16    7    8 ar
    17    7   38 1
    18    8   13 ar
    19    8    9 ar
    20    9   10 ar
    21    9   39 1
    22   10   11 ar
    23   10   40 1
    24   11   12 ar
    25   11   41 1
    26   12   13 ar
    27   12   42 1
    28   13   14 ar
    29   14   15 1
    30   15   16 1
    31   16   17 1
    32   16   43 1
    33   16   44 1
    34   17   22 ar
    35   17   18 ar
    36   18   19 ar
    37   18   45 1
    38   19   20 ar
    39   19   46 1
    40   20   21 ar
    41   20   47 1
    42   21   22 ar
    43   21   48 1
    44   22   49 1
    45   23   24 1
    46   24   25 1
    47   24   50 1
    48   24   51 1
    49   25   26 2
    50   25   27 1
    51   28   29 2
    52   28   30 1
    53   30   31 2
    54   30   32 am
    55   32   52 1
    56   32   53 1
@<TRIPOS>MOLECULE
CHEMBL180063
   58    61     0     0     0
SMALL
USER_CHARGES

@<TRIPOS>ATOM
      1 C1         -0.8038    1.1430   -0.0203 C.3       1 <0>        -0.1115
      2 C2         -0.3274   -0.2856    0.0374 C.2       1 <0>         0.1384
      3 C3         -0.2921   -1.1585   -1.0342 C.2       1 <0>        -0.2300
      4 C4          0.2419   -2.4294   -0.5083 C.ar      1 <0>        -0.0798
      5 C5          0.5160   -3.6761   -1.0728 C.ar      1 <0>         0.1723
      6 C6          1.0230   -4.6825   -0.2755 C.ar      1 <0>        -0.2309
      7 C7          1.2650   -4.4674    1.0802 C.ar      1 <0>        -0.0196
      8 C8          1.0037   -3.2420    1.6429 C.ar      1 <0>        -0.1078
      9 C9          0.4862   -2.2108    0.8523 C.ar      1 <0>         0.1319
     10 N1          0.1344   -0.9062    1.1387 N.pl3     1 <0>        -0.4477
     11 C10         0.2457   -0.2843    2.4605 C.3       1 <0>         0.1281
     12 C11        -1.1116   -0.2479    3.1144 C.ar      1 <0>        -0.1179
     13 C12        -1.8517    0.9196    3.1061 C.ar      1 <0>        -0.1048
     14 C13        -3.0967    0.9530    3.7059 C.ar      1 <0>        -0.1179
     15 C14        -3.6017   -0.1812    4.3136 C.ar      1 <0>        -0.1081
     16 C15        -2.8620   -1.3490    4.3211 C.ar      1 <0>        -0.1165
     17 C16        -1.6189   -1.3835    3.7176 C.ar      1 <0>        -0.1057
     18 C17         1.2601   -2.9444    3.0974 C.3       1 <0>        -0.0961
     19 C18         1.4022   -4.2386    3.8954 C.3       1 <0>        -0.1185
     20 C19         2.4266   -5.1325    3.1864 C.3       1 <0>        -0.1202
     21 C20         1.8114   -5.6238    1.8780 C.3       1 <0>        -0.0781
     22 O1          0.2856   -3.8971   -2.3935 O.3       1 <0>        -0.2924
     23 C21         0.5916   -5.1992   -2.8964 C.3       1 <0>         0.0692
     24 C22         0.2738   -5.2566   -4.3684 C.2       1 <0>         0.4611
     25 O2         -0.1693   -4.2825   -4.9292 O.2       1 <0>        -0.4783
     26 O3          0.4830   -6.3900   -5.0564 O.3       1 <0>        -0.3496
     27 C23         0.1594   -6.3731   -6.4482 C.3       1 <0>         0.0350
     28 C24        -0.7016   -0.8791   -2.4096 C.2       1 <0>         0.4440
     29 O4         -1.8676   -0.9966   -2.7323 O.2       1 <0>        -0.4097
     30 C25         0.3113   -0.4498   -3.4166 C.2       1 <0>         0.4913
     31 O5          1.4880   -0.4208   -3.1197 O.2       1 <0>        -0.5020
     32 N2         -0.0798   -0.0941   -4.6564 N.am      1 <0>        -0.8290
     33 H1          0.0501    1.8052   -0.1627 H         1 <0>         0.0875
     34 H2         -1.4980    1.2612   -0.8523 H         1 <0>         0.0844
     35 H3         -1.3081    1.3957    0.9124 H         1 <0>         0.0848
     36 H4          1.2347   -5.6493   -0.7077 H         1 <0>         0.1318
     37 H5          0.9312   -0.8643    3.0784 H         1 <0>         0.1185
     38 H6          0.6247    0.7321    2.3531 H         1 <0>         0.0998
     39 H7         -1.4571    1.8057    2.6313 H         1 <0>         0.1265
     40 H8         -3.6746    1.8653    3.7000 H         1 <0>         0.1264
     41 H9         -4.5741   -0.1549    4.7828 H         1 <0>         0.1252
     42 H10        -3.2565   -2.2350    4.7962 H         1 <0>         0.1257
     43 H11        -1.0425   -2.2969    3.7202 H         1 <0>         0.1310
     44 H12         2.1779   -2.3635    3.1887 H         1 <0>         0.0747
     45 H13         0.4280   -2.3653    3.4976 H         1 <0>         0.0824
     46 H14         1.7482   -4.0121    4.9039 H         1 <0>         0.0692
     47 H15         0.4401   -4.7486    3.9425 H         1 <0>         0.0673
     48 H16         3.3298   -4.5600    2.9753 H         1 <0>         0.0672
     49 H17         2.6711   -5.9849    3.8201 H         1 <0>         0.0698
     50 H18         1.0031   -6.3205    2.1005 H         1 <0>         0.0793
     51 H19         2.5748   -6.1356    1.2920 H         1 <0>         0.0776
     52 H20         1.6508   -5.4075   -2.7450 H         1 <0>         0.1100
     53 H21        -0.0042   -5.9425   -2.3668 H         1 <0>         0.1096
     54 H22        -0.8994   -6.1463   -6.5724 H         1 <0>         0.0637
     55 H23         0.7555   -5.6113   -6.9506 H         1 <0>         0.0634
     56 H24         0.3755   -7.3489   -6.8833 H         1 <0>         0.1075
     57 H25        -1.0200   -0.1173   -4.8937 H         1 <0>         0.4098
     58 H26         0.5790    0.1851   -5.3114 H         1 <0>         0.4078
@<TRIPOS>BOND
     1    1    2 1
     2    1   33 1
     3    1   34 1
     4    1   35 1
     5    2   10 1
     6    2    3 2
     7    3    4 1
     8    3   28 1
     9    4    9 ar
    10    4    5 ar
    11    5    6 ar
    12    5   22 1
    13    6    7 ar
    14    6   36 1
    15    7   21 1
    16    7    8 ar
    17    8    9 ar
    18    8   18 1
    19    9   10 1
    20   10   11 1
    21   11   12 1
    22   11   37 1
    23   11   38 1
    24   12   17 ar
    25   12   13 ar
    26   13   14 ar
    27   13   39 1
    28   14   15 ar
    29   14   40 1
    30   15   16 ar
    31   15   41 1
    32   16   17 ar
    33   16   42 1
    34   17   43 1
    35   18   19 1
    36   18   44 1
    37   18   45 1
    38   19   20 1
    39   19   46 1
    40   19   47 1
    41   20   21 1
    42   20   48 1
    43   20   49 1
    44   21   50 1
    45   21   51 1
    46   22   23 1
    47   23   24 1
    48   23   52 1
    49   23   53 1
    50   24   25 2
    51   24   26 1
    52   26   27 1
    53   27   54 1
    54   27   55 1
    55   27   56 1
    56   28   29 2
    57   28   30 1
    58   30   31 2
    59   30   32 am
    60   32   57 1
    61   32   58 1
@<TRIPOS>MOLECULE
CHEMBL148601
   56    58     0     0     0
SMALL
USER_CHARGES

@<TRIPOS>ATOM
      1 C1         -0.0187    1.5258    0.0104 C.3       1 <0>        -0.1493
      2 C2          0.0021   -0.0041    0.0020 C.3       1 <0>        -0.0664
      3 C3         -1.4117   -0.5257    0.0127 C.2       1 <0>         0.1107
      4 C4         -2.1262   -0.7928    1.1174 C.2       1 <0>        -0.1593
      5 C5         -3.4370   -1.2740    0.6744 C.ar      1 <0>        -0.0455
      6 C6         -4.5884   -1.7009    1.3399 C.ar      1 <0>        -0.1168
      7 C7         -5.6883   -2.1039    0.6096 C.ar      1 <0>         0.1149
      8 C8         -5.6517   -2.0859   -0.7824 C.ar      1 <0>        -0.1794
      9 C9         -4.5221   -1.6670   -1.4488 C.ar      1 <0>        -0.0892
     10 C10        -3.4034   -1.2566   -0.7313 C.ar      1 <0>         0.0689
     11 N1         -2.1591   -0.7915   -1.1018 N.pl3     1 <0>        -0.4735
     12 C11        -1.7046   -0.6116   -2.4828 C.3       1 <0>         0.1525
     13 C12        -1.0571   -1.8829   -2.9682 C.ar      1 <0>        -0.0984
     14 C13         0.2992   -2.0809   -2.7863 C.ar      1 <0>        -0.1002
     15 C14         0.8937   -3.2467   -3.2312 C.ar      1 <0>        -0.1066
     16 C15         0.1327   -4.2152   -3.8587 C.ar      1 <0>        -0.1042
     17 C16        -1.2242   -4.0177   -4.0410 C.ar      1 <0>        -0.0330
     18 C17        -1.8200   -2.8530   -3.5899 C.ar      1 <0>        -0.0891
     19 Cl1        -2.1806   -5.2335   -4.8289 Cl        1 <0>        -0.0644
     20 O1         -6.8121   -2.5205    1.2522 O.3       1 <0>        -0.3124
     21 C18        -7.9140   -2.9239    0.4365 C.3       1 <0>         0.0672
     22 C19        -9.0784   -3.3564    1.3298 C.3       1 <0>        -0.0916
     23 C20       -10.2581   -3.7883    0.4565 C.3       1 <0>        -0.7245
     24 P1        -11.6454   -4.3036    1.5209 P.3       1 <0>         2.2576
     25 O2        -11.1661   -5.4021    2.4959 O.2       1 <0>        -1.0945
     26 O3        -12.1563   -3.0878    2.3258 O.3       1 <0>        -1.0953
     27 O4        -12.8379   -4.8810    0.6062 O.3       1 <0>        -0.9054
     28 C21        -1.6666   -0.6292    2.5433 C.3       1 <0>        -0.0639
     29 C22        -2.0041    0.7587    3.0237 C.2       1 <0>         0.5139
     30 O5         -2.5628    1.5383    2.2813 O.2       1 <0>        -0.5262
     31 N2         -1.6851    1.1338    4.2783 N.am      1 <0>        -0.8626
     32 H1          1.0039    1.9031    0.0027 H         1 <0>         0.0589
     33 H2         -0.5459    1.8868   -0.8726 H         1 <0>         0.0532
     34 H3         -0.5289    1.8773    0.9072 H         1 <0>         0.0686
     35 H4          0.5123   -0.3556   -0.8948 H         1 <0>         0.0719
     36 H5          0.5293   -0.3651    0.8851 H         1 <0>         0.0863
     37 H6         -4.6178   -1.7160    2.4194 H         1 <0>         0.1274
     38 H7         -6.5174   -2.4038   -1.3445 H         1 <0>         0.1290
     39 H8         -4.5046   -1.6570   -2.5287 H         1 <0>         0.1165
     40 H9         -2.5577   -0.3729   -3.1180 H         1 <0>         0.0967
     41 H10        -0.9816    0.2031   -2.5242 H         1 <0>         0.0995
     42 H11         0.8942   -1.3242   -2.2967 H         1 <0>         0.1301
     43 H12         1.9532   -3.4008   -3.0888 H         1 <0>         0.1347
     44 H13         0.5976   -5.1257   -4.2069 H         1 <0>         0.1348
     45 H14        -2.8802   -2.7002   -3.7280 H         1 <0>         0.1328
     46 H15        -8.2273   -2.0886   -0.1898 H         1 <0>         0.0538
     47 H16        -7.6115   -3.7587   -0.1958 H         1 <0>         0.0538
     48 H17        -8.7650   -4.1917    1.9561 H         1 <0>         0.0847
     49 H18        -9.3808   -2.5216    1.9621 H         1 <0>         0.0819
     50 H19       -10.5714   -2.9530   -0.1698 H         1 <0>         0.0718
     51 H20        -9.9557   -4.6231   -0.1758 H         1 <0>         0.0701
     52 H21       -13.6110   -5.1749    1.1073 H         1 <0>         0.4124
     53 H22        -2.1683   -1.3637    3.1733 H         1 <0>         0.1016
     54 H23        -0.5885   -0.7802    2.5971 H         1 <0>         0.0968
     55 H24        -1.2382    0.5103    4.8720 H         1 <0>         0.3996
     56 H25        -1.9023    2.0271    4.5875 H         1 <0>         0.3993
@<TRIPOS>BOND
     1    1    2 1
     2    1   32 1
     3    1   33 1
     4    1   34 1
     5    2    3 1
     6    2   35 1
     7    2   36 1
     8    3   11 1
     9    3    4 2
    10    4    5 1
    11    4   28 1
    12    5   10 ar
    13    5    6 ar
    14    6    7 ar
    15    6   37 1
    16    7    8 ar
    17    7   20 1
    18    8    9 ar
    19    8   38 1
    20    9   10 ar
    21    9   39 1
    22   10   11 1
    23   11   12 1
    24   12   13 1
    25   12   40 1
    26   12   41 1
    27   13   18 ar
    28   13   14 ar
    29   14   15 ar
    30   14   42 1
    31   15   16 ar
    32   15   43 1
    33   16   17 ar
    34   16   44 1
    35   17   18 ar
    36   17   19 1
    37   18   45 1
    38   20   21 1
    39   21   22 1
    40   21   46 1
    41   21   47 1
    42   22   23 1
    43   22   48 1
    44   22   49 1
    45   23   24 1
    46   23   50 1
    47   23   51 1
    48   24   25 2
    49   24   26 1
    50   24   27 1
    51   27   52 1
    52   28   29 1
    53   28   53 1
    54   28   54 1
    55   29   30 2
    56   29   31 am
    57   31   55 1
    58   31   56 1
@<TRIPOS>MOLECULE
CHEMBL148601__1
   55    57     0     0     0
SMALL
USER_CHARGES

@<TRIPOS>ATOM
      1 C1         -0.0187    1.5258    0.0104 C.3       1 <0>        -0.1488
      2 C2          0.0021   -0.0041    0.0020 C.3       1 <0>        -0.0640
      3 C3          0.7074   -0.4901   -1.2379 C.2       1 <0>         0.1045
      4 C4          0.1119   -0.7431   -2.4141 C.2       1 <0>        -0.1587
      5 C5          1.1581   -1.1897   -3.3372 C.ar      1 <0>        -0.0456
      6 C6          1.1638   -1.5898   -4.6753 C.ar      1 <0>        -0.1246
      7 C7          2.3522   -1.9625   -5.2706 C.ar      1 <0>         0.1240
      8 C8          3.5392   -1.9406   -4.5426 C.ar      1 <0>        -0.1776
      9 C9          3.5453   -1.5478   -3.2230 C.ar      1 <0>        -0.0908
     10 C10         2.3584   -1.1681   -2.6049 C.ar      1 <0>         0.0632
     11 N1          2.0503   -0.7331   -1.3331 N.pl3     1 <0>        -0.4744
     12 C11         3.0164   -0.5599   -0.2455 C.3       1 <0>         0.1535
     13 C12         3.1330   -1.8453    0.5324 C.ar      1 <0>        -0.0964
     14 C13         2.3008   -2.0780    1.6117 C.ar      1 <0>        -0.1014
     15 C14         2.4071   -3.2567    2.3257 C.ar      1 <0>        -0.1085
     16 C15         3.3459   -4.2036    1.9611 C.ar      1 <0>        -0.1059
     17 C16         4.1788   -3.9714    0.8813 C.ar      1 <0>        -0.0326
     18 C17         4.0678   -2.7938    0.1633 C.ar      1 <0>        -0.0880
     19 Cl1         5.3581   -5.1601    0.4229 Cl        1 <0>        -0.0634
     20 O1          2.3638   -2.3531   -6.5732 O.3       1 <0>        -0.3119
     21 C18         3.6271   -2.7258   -7.1275 C.3       1 <0>         0.0654
     22 C19         3.4421   -3.1320   -8.5909 C.3       1 <0>        -0.0846
     23 C20         4.7946   -3.5311   -9.1843 C.3       1 <0>        -0.7206
     24 P1          4.5742   -4.0152  -10.9280 P.3       1 <0>         2.2102
     25 O2          3.4924   -5.1444  -11.0237 O.2       1 <0>        -1.1798
     26 O3          4.1069   -2.7726  -11.7599 O.3       1 <0>        -1.1808
     27 O4          5.9336   -4.5446  -11.4989 O.3       1 <0>        -1.1850
     28 C21        -1.3551   -0.5960   -2.7258 C.3       1 <0>        -0.0630
     29 C22        -1.6241    0.7983   -3.2304 C.2       1 <0>         0.5138
     30 O5         -0.7142    1.5942   -3.3274 O.2       1 <0>        -0.5246
     31 N2         -2.8760    1.1608   -3.5739 N.am      1 <0>        -0.8636
     32 H1          1.0039    1.9031    0.0027 H         1 <0>         0.0530
     33 H2         -0.5459    1.8868   -0.8726 H         1 <0>         0.0685
     34 H3         -0.5289    1.8773    0.9072 H         1 <0>         0.0564
     35 H4          0.5293   -0.3651    0.8851 H         1 <0>         0.0703
     36 H5         -1.0205   -0.3814    0.0098 H         1 <0>         0.0844
     37 H6          0.2438   -1.6080   -5.2408 H         1 <0>         0.1264
     38 H7          4.4635   -2.2347   -5.0174 H         1 <0>         0.1318
     39 H8          4.4716   -1.5345   -2.6678 H         1 <0>         0.1147
     40 H9          3.9890   -0.2977   -0.6618 H         1 <0>         0.0961
     41 H10         2.6783    0.2365    0.4174 H         1 <0>         0.0972
     42 H11         1.5676   -1.3382    1.8973 H         1 <0>         0.1292
     43 H12         1.7567   -3.4379    3.1687 H         1 <0>         0.1329
     44 H13         3.4294   -5.1243    2.5195 H         1 <0>         0.1336
     45 H14         4.7148   -2.6139   -0.6826 H         1 <0>         0.1343
     46 H15         4.3131   -1.8807   -7.0689 H         1 <0>         0.0502
     47 H16         4.0366   -3.5657   -6.5662 H         1 <0>         0.0504
     48 H17         2.7561   -3.9771   -8.6494 H         1 <0>         0.0744
     49 H18         3.0326   -2.2922   -9.1521 H         1 <0>         0.0708
     50 H19         5.4806   -2.6860   -9.1258 H         1 <0>         0.0460
     51 H20         5.2041   -4.3710   -8.6231 H         1 <0>         0.0461
     52 H21        -1.6386   -1.3199   -3.4898 H         1 <0>         0.1019
     53 H22        -1.9382   -0.7742   -1.8222 H         1 <0>         0.0949
     54 H23        -3.6037    0.5242   -3.4964 H         1 <0>         0.3989
     55 H24        -3.0491    2.0582   -3.8987 H         1 <0>         0.3981
@<TRIPOS>BOND
     1    1    2 1
     2    1   32 1
     3    1   33 1
     4    1   34 1
     5    2    3 1
     6    2   35 1
     7    2   36 1
     8    3   11 1
     9    3    4 2
    10    4    5 1
    11    4   28 1
    12    5   10 ar
    13    5    6 ar
    14    6    7 ar
    15    6   37 1
    16    7    8 ar
    17    7   20 1
    18    8    9 ar
    19    8   38 1
    20    9   10 ar
    21    9   39 1
    22   10   11 1
    23   11   12 1
    24   12   13 1
    25   12   40 1
    26   12   41 1
    27   13   18 ar
    28   13   14 ar
    29   14   15 ar
    30   14   42 1
    31   15   16 ar
    32   15   43 1
    33   16   17 ar
    34   16   44 1
    35   17   18 ar
    36   17   19 1
    37   18   45 1
    38   20   21 1
    39   21   22 1
    40   21   46 1
    41   21   47 1
    42   22   23 1
    43   22   48 1
    44   22   49 1
    45   23   24 1
    46   23   50 1
    47   23   51 1
    48   24   25 2
    49   24   26 1
    50   24   27 1
    51   28   29 1
    52   28   52 1
    53   28   53 1
    54   29   30 2
    55   29   31 am
    56   31   54 1
    57   31   55 1
@<TRIPOS>MOLECULE
CHEMBL178140
   55    58     0     0     0
SMALL
USER_CHARGES

@<TRIPOS>ATOM
      1 C1          0.1275    1.5618    0.1295 C.3       1 <0>        -0.1073
      2 C2          0.1139    0.0557    0.0788 C.2       1 <0>         0.1358
      3 C3          0.0588   -0.7029   -1.0756 C.2       1 <0>        -0.2276
      4 C4          0.0673   -2.1126   -0.6397 C.ar      1 <0>        -0.0785
      5 C5          0.0293   -3.3359   -1.3110 C.ar      1 <0>         0.1732
      6 C6          0.0515   -4.5118   -0.5850 C.ar      1 <0>        -0.2157
      7 C7          0.1111   -4.4829    0.8032 C.ar      1 <0>        -0.0380
      8 C8          0.1487   -3.2792    1.4747 C.ar      1 <0>        -0.1352
      9 C9          0.1274   -2.0819    0.7598 C.ar      1 <0>         0.1494
     10 N1          0.1592   -0.7575    1.1500 N.pl3     1 <0>        -0.4522
     11 C10         0.2298   -0.3004    2.5401 C.3       1 <0>         0.1432
     12 C11         1.6642   -0.0138    2.9025 C.ar      1 <0>        -0.1288
     13 C12         2.4211   -0.9782    3.5415 C.ar      1 <0>        -0.0717
     14 C13         3.7368   -0.7167    3.8739 C.ar      1 <0>        -0.1527
     15 C14         4.2968    0.5118    3.5666 C.ar      1 <0>         0.1119
     16 C15         3.5378    1.4768    2.9266 C.ar      1 <0>        -0.1526
     17 C16         2.2239    1.2112    2.5905 C.ar      1 <0>        -0.0733
     18 F1          5.5828    0.7687    3.8915 F         1 <0>        -0.1356
     19 C17         0.2100   -3.5251    2.9674 C.3       1 <0>        -0.0783
     20 C18        -0.2343   -4.9913    3.1533 C.3       1 <0>        -0.1187
     21 C19         0.1451   -5.6247    1.7982 C.3       1 <0>        -0.0800
     22 O1         -0.0296   -3.3704   -2.6680 O.3       1 <0>        -0.2912
     23 C20        -0.0656   -4.6596   -3.2832 C.3       1 <0>         0.0687
     24 C21        -0.1291   -4.5002   -4.7804 C.2       1 <0>         0.4613
     25 O2         -0.1421   -3.3958   -5.2703 O.2       1 <0>        -0.4783
     26 O3         -0.1712   -5.5851   -5.5697 O.3       1 <0>        -0.3494
     27 C22        -0.2304   -5.3597   -6.9796 C.3       1 <0>         0.0350
     28 C23         0.0030   -0.2084   -2.4502 C.2       1 <0>         0.4438
     29 O4         -1.0663    0.0881   -2.9466 O.2       1 <0>        -0.4090
     30 C24         1.2580   -0.0677   -3.2437 C.2       1 <0>         0.4908
     31 O5          2.3139   -0.4492   -2.7820 O.2       1 <0>        -0.5012
     32 N2          1.2198    0.4831   -4.4732 N.am      1 <0>        -0.8289
     33 H1          1.1578    1.9144    0.1767 H         1 <0>         0.0885
     34 H2         -0.3521    1.9598   -0.7647 H         1 <0>         0.0869
     35 H3         -0.4133    1.9005    1.0132 H         1 <0>         0.0817
     36 H4          0.0220   -5.4604   -1.1004 H         1 <0>         0.1322
     37 H5         -0.3622    0.6076    2.6545 H         1 <0>         0.1044
     38 H6         -0.1632   -1.0757    3.1979 H         1 <0>         0.1079
     39 H7          1.9839   -1.9362    3.7814 H         1 <0>         0.1368
     40 H8          4.3278   -1.4700    4.3734 H         1 <0>         0.1395
     41 H9          3.9736    2.4355    2.6867 H         1 <0>         0.1397
     42 H10         1.6330    1.9622    2.0873 H         1 <0>         0.1351
     43 H11         1.2283   -3.3893    3.3316 H         1 <0>         0.0779
     44 H12        -0.4720   -2.8540    3.4896 H         1 <0>         0.0701
     45 H13         0.3147   -5.4624    3.9687 H         1 <0>         0.0791
     46 H14        -1.3094   -5.0522    3.3223 H         1 <0>         0.0751
     47 H15        -0.5810   -6.3892    1.5215 H         1 <0>         0.0788
     48 H16         1.1461   -6.0532    1.8480 H         1 <0>         0.0840
     49 H17         0.8327   -5.2156   -3.0148 H         1 <0>         0.1103
     50 H18        -0.9456   -5.2025   -2.9380 H         1 <0>         0.1104
     51 H19        -1.1273   -4.7885   -7.2189 H         1 <0>         0.0638
     52 H20         0.6509   -4.8016   -7.2957 H         1 <0>         0.0634
     53 H21        -0.2599   -6.3172   -7.4997 H         1 <0>         0.1076
     54 H22         0.3761    0.7879   -4.8420 H         1 <0>         0.4099
     55 H23         2.0360    0.5746   -4.9892 H         1 <0>         0.4079
@<TRIPOS>BOND
     1    1    2 1
     2    1   33 1
     3    1   34 1
     4    1   35 1
     5    2   10 1
     6    2    3 2
     7    3    4 1
     8    3   28 1
     9    4    9 ar
    10    4    5 ar
    11    5    6 ar
    12    5   22 1
    13    6    7 ar
    14    6   36 1
    15    7   21 1
    16    7    8 ar
    17    8    9 ar
    18    8   19 1
    19    9   10 1
    20   10   11 1
    21   11   12 1
    22   11   37 1
    23   11   38 1
    24   12   17 ar
    25   12   13 ar
    26   13   14 ar
    27   13   39 1
    28   14   15 ar
    29   14   40 1
    30   15   16 ar
    31   15   18 1
    32   16   17 ar
    33   16   41 1
    34   17   42 1
    35   19   20 1
    36   19   43 1
    37   19   44 1
    38   20   21 1
    39   20   45 1
    40   20   46 1
    41   21   47 1
    42   21   48 1
    43   22   23 1
    44   23   24 1
    45   23   49 1
    46   23   50 1
    47   24   25 2
    48   24   26 1
    49   26   27 1
    50   27   51 1
    51   27   52 1
    52   27   53 1
    53   28   29 2
    54   28   30 1
    55   30   31 2
    56   30   32 am
    57   32   54 1
    58   32   55 1
@<TRIPOS>MOLECULE
CHEMBL162753
   74    76     0     0     0
SMALL
USER_CHARGES

@<TRIPOS>ATOM
      1 C1         -0.0187    1.5258    0.0104 C.3       1 <0>        -0.1544
      2 C2          0.0021   -0.0041    0.0020 C.3       1 <0>        -0.1261
      3 C3         -1.4333   -0.5336    0.0129 C.3       1 <0>        -0.1210
      4 C4         -1.4126   -2.0635    0.0045 C.3       1 <0>        -0.1212
      5 C5         -2.8479   -2.5931    0.0153 C.3       1 <0>        -0.1182
      6 C6         -2.8272   -4.1229    0.0069 C.3       1 <0>        -0.1174
      7 C7         -4.2626   -4.6525    0.0178 C.3       1 <0>        -0.1337
      8 C8         -4.2418   -6.1823    0.0094 C.3       1 <0>         0.1144
      9 N1         -5.6162   -6.6894    0.0198 N.am      1 <0>        -0.6093
     10 C9         -6.3155   -6.9361   -1.2437 C.3       1 <0>         0.0678
     11 C10        -6.2373   -6.9289    1.1917 C.2       1 <0>         0.4960
     12 O1         -5.6584   -6.7247    2.2376 O.2       1 <0>        -0.5112
     13 C11        -7.6511   -7.4505    1.2024 C.3       1 <0>         0.0660
     14 N2         -8.0961   -7.6270    2.5870 N.pl3     1 <0>        -0.4738
     15 C12        -7.8872   -8.8183    3.2202 C.2       1 <0>         0.1454
     16 C13        -8.3014   -8.9698    4.4963 C.2       1 <0>        -0.2409
     17 C14        -8.9435   -7.8828    5.1432 C.2       1 <0>         0.5217
     18 O2         -9.3273   -7.9941    6.2976 O.2       1 <0>        -0.5048
     19 N3         -9.1259   -6.7330    4.4799 N.2       1 <0>        -0.5819
     20 C15        -8.7100   -6.6009    3.2359 C.2       1 <0>         0.4019
     21 S1         -8.9603   -5.0718    2.3968 S.3       1 <0>        -0.0119
     22 C16        -9.7935   -4.0287    3.6249 C.3       1 <0>        -0.0515
     23 C17       -10.0696   -2.6728    3.0278 C.ar      1 <0>        -0.0982
     24 C18        -9.1306   -1.6644    3.1404 C.ar      1 <0>        -0.0656
     25 C19        -9.3824   -0.4208    2.5929 C.ar      1 <0>        -0.1530
     26 C20       -10.5757   -0.1849    1.9314 C.ar      1 <0>         0.1123
     27 C21       -11.5154   -1.1956    1.8193 C.ar      1 <0>        -0.1535
     28 C22       -11.2591   -2.4400    2.3631 C.ar      1 <0>        -0.0663
     29 F1        -10.8232    1.0306    1.3962 F         1 <0>        -0.1353
     30 C23        -8.0854  -10.2730    5.2216 C.3       1 <0>         0.0038
     31 C24        -6.8138  -10.1952    6.0265 C.ar      1 <0>        -0.2282
     32 C25        -5.6002  -10.5697    5.4717 C.ar      1 <0>         0.1924
     33 N4         -4.5029  -10.4891    6.2063 N.ar      1 <0>        -0.5235
     34 C26        -4.5553  -10.0571    7.4559 C.ar      1 <0>         0.4948
     35 N5         -5.6971   -9.6922    8.0162 N.ar      1 <0>        -0.5649
     36 C27        -6.8309   -9.7421    7.3362 C.ar      1 <0>         0.2060
     37 O3         -3.4123   -9.9873    8.1794 O.3       1 <0>        -0.2905
     38 C28        -3.5230   -9.5144    9.5233 C.3       1 <0>         0.0439
     39 H1          1.0039    1.9031    0.0027 H         1 <0>         0.0536
     40 H2         -0.5459    1.8868   -0.8726 H         1 <0>         0.0533
     41 H3         -0.5289    1.8773    0.9072 H         1 <0>         0.0534
     42 H4          0.5123   -0.3556   -0.8948 H         1 <0>         0.0603
     43 H5          0.5293   -0.3651    0.8851 H         1 <0>         0.0605
     44 H6         -1.9435   -0.1821    0.9097 H         1 <0>         0.0606
     45 H7         -1.9605   -0.1726   -0.8702 H         1 <0>         0.0605
     46 H8         -0.9024   -2.4150   -0.8923 H         1 <0>         0.0611
     47 H9         -0.8854   -2.4246    0.8875 H         1 <0>         0.0613
     48 H10        -3.3581   -2.2415    0.9121 H         1 <0>         0.0612
     49 H11        -3.3751   -2.2320   -0.8677 H         1 <0>         0.0608
     50 H12        -2.3170   -4.4744   -0.8899 H         1 <0>         0.0632
     51 H13        -2.3000   -4.4840    0.8900 H         1 <0>         0.0642
     52 H14        -4.7728   -4.3010    0.9146 H         1 <0>         0.0676
     53 H15        -4.7898   -4.2914   -0.8653 H         1 <0>         0.0641
     54 H16        -3.7316   -6.5338   -0.8874 H         1 <0>         0.0817
     55 H17        -3.7146   -6.5434    0.8924 H         1 <0>         0.0860
     56 H18        -6.1333   -7.9614   -1.5656 H         1 <0>         0.0654
     57 H19        -7.3856   -6.7844   -1.1023 H         1 <0>         0.0727
     58 H20        -5.9480   -6.2461   -2.0032 H         1 <0>         0.0818
     59 H21        -8.3049   -6.7386    0.6986 H         1 <0>         0.1319
     60 H22        -7.6889   -8.4085    0.6837 H         1 <0>         0.1357
     61 H23        -7.3961   -9.6311    2.7058 H         1 <0>         0.1740
     62 H24       -10.7341   -4.4945    3.9191 H         1 <0>         0.1150
     63 H25        -9.1540   -3.9168    4.5004 H         1 <0>         0.1137
     64 H26        -8.2000   -1.8485    3.6567 H         1 <0>         0.1378
     65 H27        -8.6489    0.3670    2.6813 H         1 <0>         0.1406
     66 H28       -12.4467   -1.0127    1.3039 H         1 <0>         0.1411
     67 H29       -11.9900   -3.2299    2.2719 H         1 <0>         0.1388
     68 H30        -8.9267  -10.4612    5.8887 H         1 <0>         0.0989
     69 H31        -8.0078  -11.0836    4.4971 H         1 <0>         0.0883
     70 H32        -5.5510  -10.9234    4.4524 H         1 <0>         0.1714
     71 H33        -7.7589   -9.4379    7.7973 H         1 <0>         0.1774
     72 H34        -2.5373   -9.5079    9.9886 H         1 <0>         0.1049
     73 H35        -3.9300   -8.5032    9.5203 H         1 <0>         0.0631
     74 H36        -4.1861  -10.1713   10.0861 H         1 <0>         0.0639
@<TRIPOS>BOND
     1    1    2 1
     2    1   39 1
     3    1   40 1
     4    1   41 1
     5    2    3 1
     6    2   42 1
     7    2   43 1
     8    3    4 1
     9    3   44 1
    10    3   45 1
    11    4    5 1
    12    4   46 1
    13    4   47 1
    14    5    6 1
    15    5   48 1
    16    5   49 1
    17    6    7 1
    18    6   50 1
    19    6   51 1
    20    7    8 1
    21    7   52 1
    22    7   53 1
    23    8    9 1
    24    8   54 1
    25    8   55 1
    26    9   10 1
    27    9   11 am
    28   10   56 1
    29   10   57 1
    30   10   58 1
    31   11   12 2
    32   11   13 1
    33   13   14 1
    34   13   59 1
    35   13   60 1
    36   14   20 1
    37   14   15 1
    38   15   16 2
    39   15   61 1
    40   16   17 1
    41   16   30 1
    42   17   18 2
    43   17   19 1
    44   19   20 2
    45   20   21 1
    46   21   22 1
    47   22   23 1
    48   22   62 1
    49   22   63 1
    50   23   28 ar
    51   23   24 ar
    52   24   25 ar
    53   24   64 1
    54   25   26 ar
    55   25   65 1
    56   26   27 ar
    57   26   29 1
    58   27   28 ar
    59   27   66 1
    60   28   67 1
    61   30   31 1
    62   30   68 1
    63   30   69 1
    64   31   36 ar
    65   31   32 ar
    66   32   33 ar
    67   32   70 1
    68   33   34 ar
    69   34   35 ar
    70   34   37 1
    71   35   36 ar
    72   36   71 1
    73   37   38 1
    74   38   72 1
    75   38   73 1
    76   38   74 1
@<TRIPOS>MOLECULE
CHEMBL158773
   76    78     0     0     0
SMALL
USER_CHARGES

@<TRIPOS>ATOM
      1 C1         -0.0187    1.5258    0.0104 C.3       1 <0>        -0.1537
      2 C2          0.0021   -0.0041    0.0020 C.3       1 <0>        -0.1262
      3 C3          0.7182   -0.4975   -1.2568 C.3       1 <0>        -0.1209
      4 C4          0.7390   -2.0273   -1.2652 C.3       1 <0>        -0.1213
      5 C5          1.4551   -2.5207   -2.5240 C.3       1 <0>        -0.1181
      6 C6          1.4758   -4.0506   -2.5324 C.3       1 <0>        -0.1176
      7 C7          2.1920   -4.5440   -3.7912 C.3       1 <0>        -0.1338
      8 C8          2.2127   -6.0738   -3.7996 C.3       1 <0>         0.1149
      9 N1          2.8984   -6.5463   -5.0050 N.am      1 <0>        -0.6133
     10 C9          4.3460   -6.7710   -4.9837 C.3       1 <0>         0.0712
     11 C10         2.1976   -6.7742   -6.1334 C.2       1 <0>         0.4910
     12 O1          0.9993   -6.5882   -6.1510 O.2       1 <0>        -0.4984
     13 C11         2.9030   -7.2602   -7.3733 C.3       1 <0>         0.0704
     14 N2          1.9290   -7.4303   -8.4543 N.pl3     1 <0>        -0.4759
     15 C12         1.2947   -8.6287   -8.6138 C.2       1 <0>         0.1318
     16 C13         0.3989   -8.7742   -9.6134 C.2       1 <0>        -0.2264
     17 C14         0.1426   -7.6737  -10.4711 C.2       1 <0>         0.5203
     18 O2         -0.6636   -7.7794  -11.3828 O.2       1 <0>        -0.4945
     19 N3          0.7903   -6.5174  -10.2744 N.2       1 <0>        -0.5778
     20 C15         1.6578   -6.3914   -9.2897 C.2       1 <0>         0.4004
     21 S1          2.4857   -4.8536   -9.0564 S.3       1 <0>        -0.0218
     22 C16         1.8223   -3.7942  -10.3709 C.3       1 <0>        -0.0541
     23 C17         2.4562   -2.4297  -10.2843 C.ar      1 <0>        -0.0913
     24 C18         1.8738   -1.4456   -9.5075 C.ar      1 <0>        -0.0650
     25 C19         2.4544   -0.1941   -9.4270 C.ar      1 <0>        -0.1524
     26 C20         3.6199    0.0739  -10.1247 C.ar      1 <0>         0.1069
     27 C21         4.2023   -0.9125  -10.9025 C.ar      1 <0>        -0.1550
     28 C22         3.6227   -2.1648  -10.9773 C.ar      1 <0>        -0.0679
     29 F1          4.1882    1.2971  -10.0471 F         1 <0>        -0.1385
     30 C23        -0.3169  -10.0849   -9.8152 C.3       1 <0>         0.0197
     31 C24        -1.6506  -10.0419   -9.1150 C.2       1 <0>        -0.2910
     32 C25        -1.7472  -10.3500   -7.7547 C.2       1 <0>         0.2467
     33 N4         -2.9195  -10.3080   -7.1548 N.2       1 <0>        -0.5555
     34 C26        -4.0219   -9.9740   -7.8301 C.2       1 <0>         0.6293
     35 O3         -5.0948   -9.9426   -7.2513 O.2       1 <0>        -0.5388
     36 N5         -3.9659   -9.6709   -9.1405 N.am      1 <0>        -0.4681
     37 C27        -2.7763   -9.6973   -9.7964 C.2       1 <0>         0.2314
     38 C28        -5.1894   -9.3073   -9.8597 C.3       1 <0>         0.0147
     39 C29        -5.3941   -7.8164   -9.7811 C.2       1 <0>         0.4909
     40 O4         -4.5923   -7.1218   -9.1800 O.co2     1 <0>        -0.6746
     41 O5         -6.3614   -7.3047  -10.3186 O.co2     1 <0>        -0.6859
     42 H1          1.0039    1.9031    0.0027 H         1 <0>         0.0522
     43 H2         -0.5459    1.8868   -0.8726 H         1 <0>         0.0539
     44 H3         -0.5289    1.8773    0.9072 H         1 <0>         0.0524
     45 H4          0.5293   -0.3651    0.8851 H         1 <0>         0.0593
     46 H5         -1.0205   -0.3814    0.0098 H         1 <0>         0.0613
     47 H6          0.1910   -0.1364   -2.1398 H         1 <0>         0.0616
     48 H7          1.7408   -0.1202   -1.2645 H         1 <0>         0.0593
     49 H8          1.2661   -2.3884   -0.3821 H         1 <0>         0.0597
     50 H9         -0.2836   -2.4046   -1.2575 H         1 <0>         0.0626
     51 H10         0.9279   -2.1597   -3.4071 H         1 <0>         0.0626
     52 H11         2.4777   -2.1435   -2.5317 H         1 <0>         0.0592
     53 H12         2.0030   -4.4117   -1.6494 H         1 <0>         0.0613
     54 H13         0.4533   -4.4279   -2.5247 H         1 <0>         0.0661
     55 H14         1.6648   -4.1829   -4.6743 H         1 <0>         0.0693
     56 H15         3.2146   -4.1667   -3.7990 H         1 <0>         0.0619
     57 H16         2.7399   -6.4349   -2.9166 H         1 <0>         0.0788
     58 H17         1.1901   -6.4511   -3.7919 H         1 <0>         0.0874
     59 H18         4.5497   -7.7994   -4.6855 H         1 <0>         0.0624
     60 H19         4.7559   -6.5929   -5.9779 H         1 <0>         0.0715
     61 H20         4.8093   -6.0877   -4.2719 H         1 <0>         0.0782
     62 H21         3.6549   -6.5303   -7.6732 H         1 <0>         0.1283
     63 H22         3.3860   -8.2151   -7.1658 H         1 <0>         0.1326
     64 H23         1.5075   -9.4517   -7.9477 H         1 <0>         0.1725
     65 H24         2.0448   -4.2372  -11.3417 H         1 <0>         0.1145
     66 H25         0.7427   -3.7014  -10.2527 H         1 <0>         0.1163
     67 H26         0.9645   -1.6548   -8.9636 H         1 <0>         0.1401
     68 H27         1.9991    0.5746   -8.8203 H         1 <0>         0.1396
     69 H28         5.1112   -0.7044  -11.4474 H         1 <0>         0.1387
     70 H29         4.0793   -2.9358  -11.5803 H         1 <0>         0.1383
     71 H30        -0.4712  -10.2543  -10.8808 H         1 <0>         0.0908
     72 H31         0.2845  -10.8947   -9.4020 H         1 <0>         0.0839
     73 H32        -0.8632  -10.6220   -7.1971 H         1 <0>         0.1584
     74 H33        -2.7256   -9.4509  -10.8466 H         1 <0>         0.1685
     75 H34        -5.0998   -9.6073  -10.9038 H         1 <0>         0.0918
     76 H35        -6.0412   -9.8154   -9.4075 H         1 <0>         0.1027
@<TRIPOS>BOND
     1    1    2 1
     2    1   42 1
     3    1   43 1
     4    1   44 1
     5    2    3 1
     6    2   45 1
     7    2   46 1
     8    3    4 1
     9    3   47 1
    10    3   48 1
    11    4    5 1
    12    4   49 1
    13    4   50 1
    14    5    6 1
    15    5   51 1
    16    5   52 1
    17    6    7 1
    18    6   53 1
    19    6   54 1
    20    7    8 1
    21    7   55 1
    22    7   56 1
    23    8    9 1
    24    8   57 1
    25    8   58 1
    26    9   10 1
    27    9   11 am
    28   10   59 1
    29   10   60 1
    30   10   61 1
    31   11   12 2
    32   11   13 1
    33   13   14 1
    34   13   62 1
    35   13   63 1
    36   14   20 1
    37   14   15 1
    38   15   16 2
    39   15   64 1
    40   16   17 1
    41   16   30 1
    42   17   18 2
    43   17   19 1
    44   19   20 2
    45   20   21 1
    46   21   22 1
    47   22   23 1
    48   22   65 1
    49   22   66 1
    50   23   28 ar
    51   23   24 ar
    52   24   25 ar
    53   24   67 1
    54   25   26 ar
    55   25   68 1
    56   26   27 ar
    57   26   29 1
    58   27   28 ar
    59   27   69 1
    60   28   70 1
    61   30   31 1
    62   30   71 1
    63   30   72 1
    64   31   37 2
    65   31   32 1
    66   32   33 2
    67   32   73 1
    68   33   34 1
    69   34   35 2
    70   34   36 am
    71   36   37 1
    72   36   38 1
    73   37   74 1
    74   38   39 1
    75   38   75 1
    76   38   76 1
    77   39   40 2
    78   39   41 1
@<TRIPOS>MOLECULE
CHEMBL158383
   86    88     0     0     0
SMALL
USER_CHARGES

@<TRIPOS>ATOM
      1 C1         -0.0187    1.5258    0.0104 C.3       1 <0>        -0.1543
      2 C2          0.0021   -0.0041    0.0020 C.3       1 <0>        -0.1262
      3 C3          0.7421   -0.5109    1.2415 C.3       1 <0>        -0.1212
      4 C4          0.7628   -2.0407    1.2331 C.3       1 <0>        -0.1213
      5 C5          1.5028   -2.5476    2.4727 C.3       1 <0>        -0.1205
      6 C6          1.5236   -4.0774    2.4642 C.3       1 <0>        -0.1207
      7 C7          2.2636   -4.5842    3.7038 C.3       1 <0>        -0.1201
      8 C8          2.2843   -6.1141    3.6954 C.3       1 <0>        -0.1207
      9 C9          3.0243   -6.6209    4.9349 C.3       1 <0>        -0.1179
     10 C10         3.0450   -8.1508    4.9265 C.3       1 <0>        -0.1176
     11 C11         3.7850   -8.6576    6.1660 C.3       1 <0>        -0.1335
     12 C12         3.8058  -10.1874    6.1576 C.3       1 <0>         0.1142
     13 N1          4.5143  -10.6727    7.3445 N.am      1 <0>        -0.6090
     14 C13         3.7761  -10.9337    8.5826 C.3       1 <0>         0.0677
     15 C14         5.8454  -10.8791    7.2973 C.2       1 <0>         0.4957
     16 O1          6.4566  -10.6630    6.2722 O.2       1 <0>        -0.5108
     17 C15         6.5742  -11.3783    8.5182 C.3       1 <0>         0.0656
     18 N2          7.9998  -11.5201    8.2119 N.pl3     1 <0>        -0.4732
     19 C16         8.4736  -12.7016    7.7185 C.2       1 <0>         0.1454
     20 C17         9.7893  -12.8211    7.4398 C.2       1 <0>        -0.2427
     21 C18        10.6430  -11.7115    7.6687 C.2       1 <0>         0.5233
     22 O2         11.8371  -11.7937    7.4243 O.2       1 <0>        -0.5111
     23 N3         10.1310  -10.5725    8.1542 N.2       1 <0>        -0.5834
     24 C19         8.8427  -10.4718    8.4155 C.2       1 <0>         0.4025
     25 S1          8.2029   -8.9561    9.0465 S.3       1 <0>        -0.0112
     26 C20         9.6564   -7.8757    9.1505 C.3       1 <0>        -0.0513
     27 C21         9.2434   -6.5279    9.6833 C.ar      1 <0>        -0.0987
     28 C22         8.8463   -5.5322    8.8103 C.ar      1 <0>        -0.0655
     29 C23         8.4669   -4.2960    9.2978 C.ar      1 <0>        -0.1530
     30 C24         8.4846   -4.0548   10.6611 C.ar      1 <0>         0.1126
     31 C25         8.8825   -5.0528   11.5345 C.ar      1 <0>        -0.1536
     32 C26         9.2564   -6.2900   11.0450 C.ar      1 <0>        -0.0663
     33 F1          8.1144   -2.8466   11.1388 F         1 <0>        -0.1351
     34 C27        10.3421  -14.1127    6.8947 C.3       1 <0>         0.0124
     35 C28        10.4015  -14.0387    5.3907 C.2       1 <0>        -0.2608
     36 C29         9.2765  -14.3490    4.6209 C.2       1 <0>         0.2572
     37 N4          9.3422  -14.2797    3.3067 N.2       1 <0>        -0.5446
     38 C30        10.4726  -13.9157    2.6966 C.2       1 <0>         0.6233
     39 O3         10.5071  -13.8594    1.4788 O.2       1 <0>        -0.5326
     40 N5         11.5749  -13.6095    3.4062 N.am      1 <0>        -0.5152
     41 C31        11.5488  -13.6635    4.7636 C.2       1 <0>         0.2039
     42 C32        12.8034  -13.2129    2.7138 C.3       1 <0>         0.0524
     43 H1          1.0039    1.9031    0.0027 H         1 <0>         0.0533
     44 H2         -0.5459    1.8868   -0.8726 H         1 <0>         0.0535
     45 H3         -0.5289    1.8773    0.9072 H         1 <0>         0.0533
     46 H4         -1.0205   -0.3814    0.0098 H         1 <0>         0.0602
     47 H5          0.5123   -0.3556   -0.8948 H         1 <0>         0.0603
     48 H6          1.7647   -0.1336    1.2338 H         1 <0>         0.0605
     49 H7          0.2319   -0.1594    2.1383 H         1 <0>         0.0604
     50 H8         -0.2598   -2.4180    1.2409 H         1 <0>         0.0605
     51 H9          1.2730   -2.3923    0.3363 H         1 <0>         0.0606
     52 H10         2.5254   -2.1703    2.4649 H         1 <0>         0.0603
     53 H11         0.9926   -2.1961    3.3695 H         1 <0>         0.0603
     54 H12         0.5010   -4.4547    2.4720 H         1 <0>         0.0604
     55 H13         2.0337   -4.4289    1.5675 H         1 <0>         0.0607
     56 H14         3.2861   -4.2070    3.6960 H         1 <0>         0.0603
     57 H15         1.7534   -4.2327    4.6006 H         1 <0>         0.0602
     58 H16         1.2617   -6.4914    3.7031 H         1 <0>         0.0609
     59 H17         2.7945   -6.4656    2.7986 H         1 <0>         0.0613
     60 H18         4.0469   -6.2436    4.9271 H         1 <0>         0.0610
     61 H19         2.5141   -6.2694    5.8317 H         1 <0>         0.0606
     62 H20         2.0224   -8.5280    4.9342 H         1 <0>         0.0632
     63 H21         3.5552   -8.5023    4.0297 H         1 <0>         0.0644
     64 H22         4.8076   -8.2803    6.1583 H         1 <0>         0.0675
     65 H23         3.2748   -8.3061    7.0628 H         1 <0>         0.0639
     66 H24         2.7832  -10.5647    6.1653 H         1 <0>         0.0817
     67 H25         4.3160  -10.5389    5.2608 H         1 <0>         0.0866
     68 H26         3.4320  -11.9680    8.5893 H         1 <0>         0.0655
     69 H27         4.4294  -10.7626    9.4382 H         1 <0>         0.0726
     70 H28         2.9175  -10.2648    8.6416 H         1 <0>         0.0817
     71 H29         6.4469  -10.6665    9.3337 H         1 <0>         0.1317
     72 H30         6.1681  -12.3457    8.8135 H         1 <0>         0.1362
     73 H31         7.8032  -13.5321    7.5533 H         1 <0>         0.1750
     74 H32        10.3928   -8.3208    9.8196 H         1 <0>         0.1148
     75 H33        10.0921   -7.7563    8.1585 H         1 <0>         0.1134
     76 H34         8.8329   -5.7204    7.7469 H         1 <0>         0.1378
     77 H35         8.1571   -3.5182    8.6156 H         1 <0>         0.1407
     78 H36         8.8970   -4.8658   12.5981 H         1 <0>         0.1411
     79 H37         9.5626   -7.0700   11.7264 H         1 <0>         0.1388
     80 H38        11.3448  -14.2745    7.2904 H         1 <0>         0.0964
     81 H39         9.6963  -14.9387    7.1926 H         1 <0>         0.0904
     82 H40         8.3561  -14.6451    5.1021 H         1 <0>         0.1686
     83 H41        12.4292  -13.4148    5.3375 H         1 <0>         0.1793
     84 H42        12.6335  -13.2240    1.6372 H         1 <0>         0.1067
     85 H43        13.0885  -12.2083    3.0263 H         1 <0>         0.0840
     86 H44        13.6024  -13.9113    2.9627 H         1 <0>         0.0849
@<TRIPOS>BOND
     1    1    2 1
     2    1   43 1
     3    1   44 1
     4    1   45 1
     5    2    3 1
     6    2   46 1
     7    2   47 1
     8    3    4 1
     9    3   48 1
    10    3   49 1
    11    4    5 1
    12    4   50 1
    13    4   51 1
    14    5    6 1
    15    5   52 1
    16    5   53 1
    17    6    7 1
    18    6   54 1
    19    6   55 1
    20    7    8 1
    21    7   56 1
    22    7   57 1
    23    8    9 1
    24    8   58 1
    25    8   59 1
    26    9   10 1
    27    9   60 1
    28    9   61 1
    29   10   11 1
    30   10   62 1
    31   10   63 1
    32   11   12 1
    33   11   64 1
    34   11   65 1
    35   12   13 1
    36   12   66 1
    37   12   67 1
    38   13   14 1
    39   13   15 am
    40   14   68 1
    41   14   69 1
    42   14   70 1
    43   15   16 2
    44   15   17 1
    45   17   18 1
    46   17   71 1
    47   17   72 1
    48   18   24 1
    49   18   19 1
    50   19   20 2
    51   19   73 1
    52   20   21 1
    53   20   34 1
    54   21   22 2
    55   21   23 1
    56   23   24 2
    57   24   25 1
    58   25   26 1
    59   26   27 1
    60   26   74 1
    61   26   75 1
    62   27   32 ar
    63   27   28 ar
    64   28   29 ar
    65   28   76 1
    66   29   30 ar
    67   29   77 1
    68   30   31 ar
    69   30   33 1
    70   31   32 ar
    71   31   78 1
    72   32   79 1
    73   34   35 1
    74   34   80 1
    75   34   81 1
    76   35   41 2
    77   35   36 1
    78   36   37 2
    79   36   82 1
    80   37   38 1
    81   38   39 2
    82   38   40 am
    83   40   41 1
    84   40   42 1
    85   41   83 1
    86   42   84 1
    87   42   85 1
    88   42   86 1
@<TRIPOS>MOLECULE
CHEMBL446349
   67    71     0     0     0
SMALL
USER_CHARGES

@<TRIPOS>ATOM
      1 C1          0.2218    1.5855    0.6440 C.3       1 <0>        -0.1512
      2 C2          0.2279    0.0571    0.5738 C.3       1 <0>        -0.0676
      3 C3         -1.1714   -0.4395    0.3160 C.2       1 <0>         0.1121
      4 C4         -2.1025   -0.7492    1.2902 C.2       1 <0>        -0.1983
      5 C5         -3.3142   -1.1882    0.5720 C.ar      1 <0>        -0.0783
      6 C6         -4.5833   -1.6273    0.9939 C.ar      1 <0>         0.2010
      7 C7         -5.5345   -1.9784    0.0848 C.ar      1 <0>        -0.2586
      8 C8         -5.2568   -1.9060   -1.2943 C.ar      1 <0>         0.0156
      9 C9         -6.2275   -2.2646   -2.2445 C.ar      1 <0>        -0.1107
     10 C10        -5.9349   -2.1857   -3.5723 C.ar      1 <0>        -0.1121
     11 C11        -4.6839   -1.7541   -4.0051 C.ar      1 <0>        -0.1354
     12 C12        -3.7188   -1.3985   -3.1112 C.ar      1 <0>        -0.1225
     13 C13        -3.9854   -1.4668   -1.7361 C.ar      1 <0>        -0.0576
     14 C14        -3.0049   -1.1040   -0.7840 C.ar      1 <0>         0.1160
     15 N1         -1.7127   -0.6456   -0.8978 N.pl3     1 <0>        -0.4297
     16 C15        -1.0194   -0.4171   -2.1679 C.3       1 <0>         0.1315
     17 C16        -0.2737   -1.6650   -2.5648 C.ar      1 <0>        -0.1173
     18 C17         1.0683   -1.7948   -2.2598 C.ar      1 <0>        -0.1008
     19 C18         1.7523   -2.9396   -2.6238 C.ar      1 <0>        -0.1205
     20 C19         1.0942   -3.9547   -3.2926 C.ar      1 <0>        -0.1093
     21 C20        -0.2480   -3.8254   -3.5969 C.ar      1 <0>        -0.1176
     22 C21        -0.9331   -2.6824   -3.2290 C.ar      1 <0>        -0.1067
     23 O1         -4.8619   -1.7019    2.3214 O.3       1 <0>        -0.2727
     24 C22        -6.1205   -2.2698    2.6892 C.3       1 <0>         0.0952
     25 C23        -6.3137   -2.1413    4.1782 C.2       1 <0>         0.4907
     26 O2         -7.3847   -2.7085    4.7710 O.3       1 <0>        -0.7121
     27 N2         -5.4547   -1.4887    4.8863 N.2       1 <0>        -1.0320
     28 S1         -5.6095   -1.4356    6.5342 S.o2      1 <0>         2.6403
     29 O3         -6.8587   -0.8148    6.8049 O.2       1 <0>        -1.0033
     30 O4         -5.2833   -2.7325    7.0147 O.2       1 <0>        -1.0054
     31 C24        -4.3640   -0.3462    7.1397 C.ar      1 <0>        -0.6249
     32 C25        -3.1165   -0.8398    7.4727 C.ar      1 <0>        -0.0329
     33 C26        -2.1394    0.0149    7.9477 C.ar      1 <0>        -0.1495
     34 C27        -2.4097    1.3632    8.0893 C.ar      1 <0>        -0.0794
     35 C28        -3.6569    1.8568    7.7554 C.ar      1 <0>        -0.1415
     36 C29        -4.6327    1.0028    7.2764 C.ar      1 <0>        -0.0192
     37 C30        -1.9223   -0.6604    2.7395 C.2       1 <0>         0.4414
     38 O5         -2.1158    0.3938    3.3124 O.2       1 <0>        -0.4011
     39 C31        -1.5012   -1.8639    3.5139 C.2       1 <0>         0.4974
     40 O6         -1.2275   -2.8941    2.9332 O.2       1 <0>        -0.5077
     41 N3         -1.4246   -1.8074    4.8583 N.am      1 <0>        -0.8278
     42 H1          1.2339    1.9447    0.8304 H         1 <0>         0.0651
     43 H2         -0.1394    1.9912   -0.3011 H         1 <0>         0.0557
     44 H3         -0.4334    1.9095    1.4526 H         1 <0>         0.0681
     45 H4          0.8831   -0.2669   -0.2348 H         1 <0>         0.0807
     46 H5          0.5891   -0.3485    1.5188 H         1 <0>         0.0875
     47 H6         -6.5042   -2.3136    0.4220 H         1 <0>         0.1387
     48 H7         -7.2020   -2.6018   -1.9233 H         1 <0>         0.1278
     49 H8         -6.6837   -2.4621   -4.2998 H         1 <0>         0.1194
     50 H9         -4.4755   -1.7008   -5.0635 H         1 <0>         0.1180
     51 H10        -2.7524   -1.0658   -3.4603 H         1 <0>         0.1275
     52 H11        -1.7477   -0.1680   -2.9397 H         1 <0>         0.1101
     53 H12        -0.3146    0.4066   -2.0541 H         1 <0>         0.1029
     54 H13         1.5825   -1.0017   -1.7373 H         1 <0>         0.1234
     55 H14         2.8010   -3.0407   -2.3861 H         1 <0>         0.1241
     56 H15         1.6288   -4.8488   -3.5777 H         1 <0>         0.1229
     57 H16        -0.7621   -4.6183   -4.1196 H         1 <0>         0.1244
     58 H17        -1.9826   -2.5829   -3.4634 H         1 <0>         0.1355
     59 H18        -6.9221   -1.7426    2.1720 H         1 <0>         0.0841
     60 H19        -6.1392   -3.3233    2.4100 H         1 <0>         0.0849
     61 H20        -2.9053   -1.8931    7.3621 H         1 <0>         0.1345
     62 H21        -1.1649   -0.3708    8.2086 H         1 <0>         0.1267
     63 H22        -1.6465    2.0308    8.4611 H         1 <0>         0.1235
     64 H23        -3.8682    2.9101    7.8664 H         1 <0>         0.1262
     65 H24        -5.6060    1.3891    7.0120 H         1 <0>         0.1359
     66 H25        -1.7112   -1.0081    5.3272 H         1 <0>         0.4091
     67 H26        -1.0829   -2.5660    5.3570 H         1 <0>         0.4055
@<TRIPOS>BOND
     1    1    2 1
     2    1   42 1
     3    1   43 1
     4    1   44 1
     5    2    3 1
     6    2   45 1
     7    2   46 1
     8    3   15 1
     9    3    4 2
    10    4    5 1
    11    4   37 1
    12    5   14 ar
    13    5    6 ar
    14    6    7 ar
    15    6   23 1
    16    7    8 ar
    17    7   47 1
    18    8   13 ar
    19    8    9 ar
    20    9   10 ar
    21    9   48 1
    22   10   11 ar
    23   10   49 1
    24   11   12 ar
    25   11   50 1
    26   12   13 ar
    27   12   51 1
    28   13   14 ar
    29   14   15 1
    30   15   16 1
    31   16   17 1
    32   16   52 1
    33   16   53 1
    34   17   22 ar
    35   17   18 ar
    36   18   19 ar
    37   18   54 1
    38   19   20 ar
    39   19   55 1
    40   20   21 ar
    41   20   56 1
    42   21   22 ar
    43   21   57 1
    44   22   58 1
    45   23   24 1
    46   24   25 1
    47   24   59 1
    48   24   60 1
    49   25   26 1
    50   25   27 2
    51   27   28 1
    52   28   29 2
    53   28   30 2
    54   28   31 1
    55   31   36 ar
    56   31   32 ar
    57   32   33 ar
    58   32   61 1
    59   33   34 ar
    60   33   62 1
    61   34   35 ar
    62   34   63 1
    63   35   36 ar
    64   35   64 1
    65   36   65 1
    66   37   38 2
    67   37   39 1
    68   39   40 2
    69   39   41 am
    70   41   66 1
    71   41   67 1
@<TRIPOS>MOLECULE
CHEMBL422667
   47    49     0     0     0
SMALL
USER_CHARGES

@<TRIPOS>ATOM
      1 C1          0.1983    1.4551    0.0835 C.3       1 <0>        -0.1005
      2 C2          0.2302   -0.0503    0.0241 C.2       1 <0>         0.1139
      3 C3         -0.0507   -0.8102   -1.0960 C.2       1 <0>        -0.2096
      4 C4          0.1070   -2.2189   -0.6859 C.ar      1 <0>        -0.0976
      5 C5          0.4752   -2.1857    0.6672 C.ar      1 <0>         0.1350
      6 N1          0.5423   -0.8611    1.0516 N.pl3     1 <0>        -0.4571
      7 C6          0.9007   -0.4014    2.3957 C.3       1 <0>         0.1492
      8 C7         -0.3446   -0.2891    3.2369 C.ar      1 <0>        -0.1143
      9 C8         -1.0545    0.8966    3.2659 C.ar      1 <0>        -0.1034
     10 C9         -2.1968    0.9996    4.0376 C.ar      1 <0>        -0.1211
     11 C10        -2.6294   -0.0833    4.7799 C.ar      1 <0>        -0.1121
     12 C11        -1.9200   -1.2694    4.7501 C.ar      1 <0>        -0.1198
     13 C12        -0.7801   -1.3737    3.9751 C.ar      1 <0>        -0.0948
     14 C13         0.6988   -3.3817    1.3424 C.ar      1 <0>        -0.1829
     15 C14         0.5588   -4.5842    0.6825 C.ar      1 <0>        -0.0515
     16 C15         0.1951   -4.6192   -0.6541 C.ar      1 <0>        -0.2504
     17 C16        -0.0325   -3.4414   -1.3447 C.ar      1 <0>         0.1925
     18 O1         -0.3894   -3.4752   -2.6552 O.3       1 <0>        -0.2750
     19 C17        -0.6252   -4.7618   -3.2305 C.3       1 <0>         0.0115
     20 C18         0.7016   -5.3606   -3.7018 C.3       1 <0>        -0.1553
     21 C19        -1.5593   -4.6235   -4.4049 C.2       1 <0>         0.5058
     22 O2         -1.9115   -3.5171   -4.7766 O.co2     1 <0>        -0.6683
     23 O3         -1.9628   -5.6180   -4.9833 O.co2     1 <0>        -0.6871
     24 C20        -0.4287   -0.3175   -2.4195 C.2       1 <0>         0.4395
     25 O4         -1.5990   -0.1225   -2.6840 O.2       1 <0>        -0.4005
     26 C21         0.6216   -0.0543   -3.4452 C.2       1 <0>         0.4961
     27 O5          1.7810   -0.3267   -3.2104 O.2       1 <0>        -0.5092
     28 N2          0.2834    0.4860   -4.6327 N.am      1 <0>        -0.8281
     29 H1          1.2017    1.8467   -0.0832 H         1 <0>         0.0832
     30 H2         -0.4727    1.8350   -0.6870 H         1 <0>         0.0826
     31 H3         -0.1574    1.7726    1.0637 H         1 <0>         0.0754
     32 H4          1.5852   -1.1156    2.8534 H         1 <0>         0.0998
     33 H5          1.3836    0.5735    2.3295 H         1 <0>         0.0990
     34 H6         -0.7165    1.7427    2.6860 H         1 <0>         0.1238
     35 H7         -2.7510    1.9263    4.0608 H         1 <0>         0.1237
     36 H8         -3.5215   -0.0026    5.3833 H         1 <0>         0.1224
     37 H9         -2.2579   -2.1153    5.3303 H         1 <0>         0.1240
     38 H10        -0.2280   -2.3015    3.9490 H         1 <0>         0.1239
     39 H11         0.9827   -3.3680    2.3844 H         1 <0>         0.1148
     40 H12         0.7346   -5.5084    1.2129 H         1 <0>         0.1244
     41 H13         0.0890   -5.5683   -1.1586 H         1 <0>         0.1326
     42 H14        -1.0745   -5.4168   -2.4840 H         1 <0>         0.0688
     43 H15         1.1509   -4.7057   -4.4483 H         1 <0>         0.0581
     44 H16         1.3772   -5.4606   -2.8523 H         1 <0>         0.0497
     45 H17         0.5218   -6.3420   -4.1406 H         1 <0>         0.0731
     46 H18        -0.6430    0.7037   -4.8203 H         1 <0>         0.4110
     47 H19         0.9665    0.6572   -5.2997 H         1 <0>         0.4047
@<TRIPOS>BOND
     1    1    2 1
     2    1   29 1
     3    1   30 1
     4    1   31 1
     5    2    6 1
     6    2    3 2
     7    3    4 1
     8    3   24 1
     9    4   17 ar
    10    4    5 ar
    11    5    6 1
    12    5   14 ar
    13    6    7 1
    14    7    8 1
    15    7   32 1
    16    7   33 1
    17    8   13 ar
    18    8    9 ar
    19    9   10 ar
    20    9   34 1
    21   10   11 ar
    22   10   35 1
    23   11   12 ar
    24   11   36 1
    25   12   13 ar
    26   12   37 1
    27   13   38 1
    28   14   15 ar
    29   14   39 1
    30   15   16 ar
    31   15   40 1
    32   16   17 ar
    33   16   41 1
    34   17   18 1
    35   18   19 1
    36   19   20 1
    37   19   21 1
    38   19   42 1
    39   20   43 1
    40   20   44 1
    41   20   45 1
    42   21   22 2
    43   21   23 1
    44   24   25 2
    45   24   26 1
    46   26   27 2
    47   26   28 am
    48   28   46 1
    49   28   47 1
@<TRIPOS>MOLECULE
CHEMBL422667__1
   47    49     0     0     0
SMALL
USER_CHARGES

@<TRIPOS>ATOM
      1 C1          0.7542    1.4628   -0.1324 C.3       1 <0>        -0.1008
      2 C2          0.4565   -0.0135   -0.0801 C.2       1 <0>         0.1142
      3 C3          0.2812   -0.8310   -1.1810 C.2       1 <0>        -0.2114
      4 C4          0.0142   -2.1817   -0.6502 C.ar      1 <0>        -0.0971
      5 C5          0.0522   -2.0596    0.7466 C.ar      1 <0>         0.1348
      6 N1          0.3262   -0.7395    1.0453 N.pl3     1 <0>        -0.4571
      7 C6          0.4541   -0.2021    2.4022 C.3       1 <0>         0.1488
      8 C7         -0.8948    0.2624    2.8876 C.ar      1 <0>        -0.1135
      9 C8         -1.3034    1.5622    2.6543 C.ar      1 <0>        -0.1034
     10 C9         -2.5407    1.9884    3.0996 C.ar      1 <0>        -0.1212
     11 C10        -3.3697    1.1145    3.7778 C.ar      1 <0>        -0.1125
     12 C11        -2.9616   -0.1856    4.0104 C.ar      1 <0>        -0.1200
     13 C12        -1.7260   -0.6129    3.5613 C.ar      1 <0>        -0.0948
     14 C13        -0.1664   -3.1848    1.5356 C.ar      1 <0>        -0.1829
     15 C14        -0.4171   -4.4049    0.9444 C.ar      1 <0>        -0.0515
     16 C15        -0.4551   -4.5278   -0.4353 C.ar      1 <0>        -0.2501
     17 C16        -0.2408   -3.4213   -1.2388 C.ar      1 <0>         0.1926
     18 O1         -0.2783   -3.5411   -2.5917 O.3       1 <0>        -0.2749
     19 C17        -0.4239   -4.8599   -3.1224 C.3       1 <0>         0.0119
     20 C18        -1.9063   -5.2376   -3.1503 C.3       1 <0>        -0.1562
     21 C19         0.1317   -4.9021   -4.5226 C.2       1 <0>         0.5065
     22 O2          0.1884   -5.9610   -5.1243 O.co2     1 <0>        -0.6872
     23 O3          0.5245   -3.8773   -5.0537 O.co2     1 <0>        -0.6680
     24 C20         0.3463   -0.4367   -2.5872 C.2       1 <0>         0.4473
     25 O4         -0.6445   -0.0057   -3.1441 O.2       1 <0>        -0.4158
     26 C21         1.6284   -0.5633   -3.3386 C.2       1 <0>         0.4981
     27 O5          2.5916   -1.0819   -2.8124 O.2       1 <0>        -0.5035
     28 N2          1.7176   -0.1020   -4.6018 N.am      1 <0>        -0.8254
     29 H1          1.8310    1.6189   -0.0674 H         1 <0>         0.0836
     30 H2          0.3833    1.8753   -1.0707 H         1 <0>         0.0829
     31 H3          0.2636    1.9623    0.7031 H         1 <0>         0.0754
     32 H4          0.8315   -0.9793    3.0667 H         1 <0>         0.1000
     33 H5          1.1474    0.6389    2.3960 H         1 <0>         0.0992
     34 H6         -0.6557    2.2449    2.1243 H         1 <0>         0.1239
     35 H7         -2.8596    3.0041    2.9179 H         1 <0>         0.1236
     36 H8         -4.3361    1.4477    4.1264 H         1 <0>         0.1222
     37 H9         -3.6091   -0.8682    4.5406 H         1 <0>         0.1238
     38 H10        -1.4087   -1.6297    3.7398 H         1 <0>         0.1240
     39 H11        -0.1394   -3.1023    2.6121 H         1 <0>         0.1149
     40 H12        -0.5851   -5.2740    1.5632 H         1 <0>         0.1245
     41 H13        -0.6526   -5.4897   -0.8849 H         1 <0>         0.1326
     42 H14         0.1192   -5.5662   -2.4945 H         1 <0>         0.0686
     43 H15        -2.4494   -4.5313   -3.7782 H         1 <0>         0.0584
     44 H16        -2.0173   -6.2436   -3.5551 H         1 <0>         0.0732
     45 H17        -2.3082   -5.2071   -2.1376 H         1 <0>         0.0494
     46 H18         0.9479    0.3124   -5.0222 H         1 <0>         0.4070
     47 H19         2.5515   -0.1843   -5.0904 H         1 <0>         0.4061
@<TRIPOS>BOND
     1    1    2 1
     2    1   29 1
     3    1   30 1
     4    1   31 1
     5    2    6 1
     6    2    3 2
     7    3    4 1
     8    3   24 1
     9    4   17 ar
    10    4    5 ar
    11    5    6 1
    12    5   14 ar
    13    6    7 1
    14    7    8 1
    15    7   32 1
    16    7   33 1
    17    8   13 ar
    18    8    9 ar
    19    9   10 ar
    20    9   34 1
    21   10   11 ar
    22   10   35 1
    23   11   12 ar
    24   11   36 1
    25   12   13 ar
    26   12   37 1
    27   13   38 1
    28   14   15 ar
    29   14   39 1
    30   15   16 ar
    31   15   40 1
    32   16   17 ar
    33   16   41 1
    34   17   18 1
    35   18   19 1
    36   19   20 1
    37   19   21 1
    38   19   42 1
    39   20   43 1
    40   20   44 1
    41   20   45 1
    42   21   22 2
    43   21   23 1
    44   24   25 2
    45   24   26 1
    46   26   27 2
    47   26   28 am
    48   28   46 1
    49   28   47 1
@<TRIPOS>MOLECULE
CHEMBL358155
   63    66     0     0     0
SMALL
USER_CHARGES

@<TRIPOS>ATOM
      1 C1         -0.6044    2.0980   -0.3767 C.3       1 <0>        -0.1494
      2 C2         -0.2817    0.6263   -0.1105 C.3       1 <0>        -0.0693
      3 C3         -1.5624   -0.1655   -0.0486 C.2       1 <0>         0.1203
      4 C4         -2.3052   -0.3920    1.0950 C.2       1 <0>        -0.2171
      5 C5         -3.4629   -1.2062    0.6774 C.ar      1 <0>        -0.0962
      6 C6         -3.3153   -1.4032   -0.7035 C.ar      1 <0>         0.1337
      7 N1         -2.1614   -0.7558   -1.0990 N.pl3     1 <0>        -0.4554
      8 C7         -1.6566   -0.7195   -2.4737 C.3       1 <0>         0.1493
      9 C8         -0.7393   -1.8930   -2.7031 C.ar      1 <0>        -0.1144
     10 C9          0.6132   -1.7743   -2.4431 C.ar      1 <0>        -0.1032
     11 C10         1.4546   -2.8507   -2.6534 C.ar      1 <0>        -0.1213
     12 C11         0.9434   -4.0460   -3.1234 C.ar      1 <0>        -0.1114
     13 C12        -0.4092   -4.1650   -3.3826 C.ar      1 <0>        -0.1187
     14 C13        -1.2513   -3.0899   -3.1682 C.ar      1 <0>        -0.0931
     15 C14        -4.2694   -2.1461   -1.3921 C.ar      1 <0>        -0.1849
     16 C15        -5.3472   -2.6803   -0.7182 C.ar      1 <0>        -0.0494
     17 C16        -5.4950   -2.4869    0.6459 C.ar      1 <0>        -0.2318
     18 C17        -4.5573   -1.7516    1.3503 C.ar      1 <0>         0.2131
     19 O1         -4.7014   -1.5619    2.6879 O.3       1 <0>        -0.2890
     20 C18        -5.9067   -2.0441    3.2854 C.3       1 <0>         0.0155
     21 C19        -6.1977   -1.2491    4.5598 C.3       1 <0>        -0.0868
     22 C20        -6.4814    0.2100    4.1970 C.3       1 <0>        -0.0842
     23 C21        -6.7680    0.9931    5.4522 C.ar      1 <0>        -0.0679
     24 C22        -8.0638    1.0942    5.9230 C.ar      1 <0>        -0.1182
     25 C23        -8.3268    1.8125    7.0744 C.ar      1 <0>        -0.1206
     26 C24        -7.2939    2.4294    7.7553 C.ar      1 <0>        -0.1332
     27 C25        -5.9980    2.3275    7.2850 C.ar      1 <0>        -0.1202
     28 C26        -5.7345    1.6056    6.1359 C.ar      1 <0>        -0.1152
     29 C27        -5.7485   -3.5030    3.6286 C.2       1 <0>         0.4809
     30 O2         -4.6725   -4.0536    3.4688 O.co2     1 <0>        -0.6658
     31 O3         -6.6965   -4.1326    4.0660 O.co2     1 <0>        -0.6935
     32 C28        -2.0042    0.0794    2.4457 C.2       1 <0>         0.4510
     33 O4         -2.3908    1.1735    2.8079 O.2       1 <0>        -0.4200
     34 C29        -1.2229   -0.7821    3.3793 C.2       1 <0>         0.4841
     35 O5         -0.9004   -1.9034    3.0444 O.2       1 <0>        -0.4836
     36 N2         -0.8748   -0.3156    4.5950 N.am      1 <0>        -0.8364
     37 H1          0.3219    2.6708   -0.4215 H         1 <0>         0.0636
     38 H2         -1.1336    2.1882   -1.3254 H         1 <0>         0.0563
     39 H3         -1.2315    2.4836    0.4272 H         1 <0>         0.0659
     40 H4          0.3453    0.2407   -0.9144 H         1 <0>         0.0803
     41 H5          0.2474    0.5362    0.8381 H         1 <0>         0.0840
     42 H6         -2.4938   -0.7713   -3.1698 H         1 <0>         0.0992
     43 H7         -1.1071    0.2080   -2.6347 H         1 <0>         0.0975
     44 H8          1.0125   -0.8405   -2.0759 H         1 <0>         0.1219
     45 H9          2.5113   -2.7577   -2.4510 H         1 <0>         0.1228
     46 H10         1.6009   -4.8868   -3.2885 H         1 <0>         0.1222
     47 H11        -0.8085   -5.0988   -3.7502 H         1 <0>         0.1242
     48 H12        -2.3086   -3.1840   -3.3671 H         1 <0>         0.1240
     49 H13        -4.1658   -2.3040   -2.4554 H         1 <0>         0.1140
     50 H14        -6.0842   -3.2551   -1.2593 H         1 <0>         0.1241
     51 H15        -6.3441   -2.9111    1.1611 H         1 <0>         0.1305
     52 H16        -6.7331   -1.9232    2.5850 H         1 <0>         0.0675
     53 H17        -7.0665   -1.6739    5.0626 H         1 <0>         0.0863
     54 H18        -5.3342   -1.2972    5.2232 H         1 <0>         0.0661
     55 H19        -5.6126    0.6348    3.6941 H         1 <0>         0.0760
     56 H20        -7.3449    0.2582    3.5335 H         1 <0>         0.0687
     57 H21        -8.8708    0.6122    5.3911 H         1 <0>         0.1213
     58 H22        -9.3392    1.8921    7.4419 H         1 <0>         0.1181
     59 H23        -7.4994    2.9912    8.6545 H         1 <0>         0.1163
     60 H24        -5.1911    2.8098    7.8167 H         1 <0>         0.1180
     61 H25        -4.7215    1.5229    5.7705 H         1 <0>         0.1214
     62 H26        -1.1325    0.5804    4.8627 H         1 <0>         0.4060
     63 H27        -0.3666   -0.8760    5.2022 H         1 <0>         0.4059
@<TRIPOS>BOND
     1    1    2 1
     2    1   37 1
     3    1   38 1
     4    1   39 1
     5    2    3 1
     6    2   40 1
     7    2   41 1
     8    3    7 1
     9    3    4 2
    10    4    5 1
    11    4   32 1
    12    5   18 ar
    13    5    6 ar
    14    6    7 1
    15    6   15 ar
    16    7    8 1
    17    8    9 1
    18    8   42 1
    19    8   43 1
    20    9   14 ar
    21    9   10 ar
    22   10   11 ar
    23   10   44 1
    24   11   12 ar
    25   11   45 1
    26   12   13 ar
    27   12   46 1
    28   13   14 ar
    29   13   47 1
    30   14   48 1
    31   15   16 ar
    32   15   49 1
    33   16   17 ar
    34   16   50 1
    35   17   18 ar
    36   17   51 1
    37   18   19 1
    38   19   20 1
    39   20   21 1
    40   20   29 1
    41   20   52 1
    42   21   22 1
    43   21   53 1
    44   21   54 1
    45   22   23 1
    46   22   55 1
    47   22   56 1
    48   23   28 ar
    49   23   24 ar
    50   24   25 ar
    51   24   57 1
    52   25   26 ar
    53   25   58 1
    54   26   27 ar
    55   26   59 1
    56   27   28 ar
    57   27   60 1
    58   28   61 1
    59   29   30 2
    60   29   31 1
    61   32   33 2
    62   32   34 1
    63   34   35 2
    64   34   36 am
    65   36   62 1
    66   36   63 1
@<TRIPOS>MOLECULE
CHEMBL358155__1
   63    66     0     0     0
SMALL
USER_CHARGES

@<TRIPOS>ATOM
      1 C1         -0.0685    1.4144    0.1412 C.3       1 <0>        -0.1511
      2 C2         -0.0684   -0.1155    0.1236 C.3       1 <0>        -0.0678
      3 C3         -1.4887   -0.6175    0.0832 C.2       1 <0>         0.1191
      4 C4         -2.2696   -0.8905    1.1907 C.2       1 <0>        -0.2150
      5 C5         -3.5716   -1.3511    0.6709 C.ar      1 <0>        -0.0955
      6 C6         -3.4611   -1.3153   -0.7270 C.ar      1 <0>         0.1335
      7 N1         -2.1934   -0.8634   -1.0364 N.pl3     1 <0>        -0.4551
      8 C7         -1.6841   -0.6801   -2.3977 C.3       1 <0>         0.1480
      9 C8         -1.0365   -1.9570   -2.8680 C.ar      1 <0>        -0.1119
     10 C9          0.3086   -2.1759   -2.6364 C.ar      1 <0>        -0.1031
     11 C10         0.9026   -3.3472   -3.0677 C.ar      1 <0>        -0.1214
     12 C11         0.1514   -4.2999   -3.7303 C.ar      1 <0>        -0.1126
     13 C12        -1.1939   -4.0814   -3.9611 C.ar      1 <0>        -0.1195
     14 C13        -1.7889   -2.9120   -3.5259 C.ar      1 <0>        -0.0938
     15 C14        -4.5474   -1.7000   -1.5069 C.ar      1 <0>        -0.1850
     16 C15        -5.7183   -2.1108   -0.9058 C.ar      1 <0>        -0.0493
     17 C16        -5.8296   -2.1469    0.4750 C.ar      1 <0>        -0.2320
     18 C17        -4.7611   -1.7690    1.2696 C.ar      1 <0>         0.2138
     19 O1         -4.8696   -1.8045    2.6234 O.3       1 <0>        -0.2889
     20 C18        -6.0721   -2.3559    3.1637 C.3       1 <0>         0.0161
     21 C19        -5.8022   -2.8847    4.5738 C.3       1 <0>        -0.0870
     22 C20        -4.8180   -4.0539    4.5004 C.3       1 <0>        -0.0846
     23 C21        -4.5522   -4.5747    5.8893 C.ar      1 <0>        -0.0657
     24 C22        -3.5184   -4.0461    6.6395 C.ar      1 <0>        -0.1159
     25 C23        -3.2745   -4.5238    7.9136 C.ar      1 <0>        -0.1202
     26 C24        -4.0647   -5.5298    8.4375 C.ar      1 <0>        -0.1333
     27 C25        -5.0990   -6.0578    7.6876 C.ar      1 <0>        -0.1195
     28 C26        -5.3456   -5.5771    6.4152 C.ar      1 <0>        -0.1179
     29 C27        -7.1328   -1.2870    3.2225 C.2       1 <0>         0.4823
     30 O2         -8.2666   -1.5717    3.5688 O.co2     1 <0>        -0.6923
     31 O3         -6.8571   -0.1375    2.9238 O.co2     1 <0>        -0.6695
     32 C28        -1.8832   -0.7517    2.5938 C.2       1 <0>         0.4424
     33 O4         -1.9902    0.3238    3.1502 O.2       1 <0>        -0.4081
     34 C29        -1.3577   -1.9296    3.3426 C.2       1 <0>         0.4899
     35 O5         -1.3361   -3.0232    2.8161 O.2       1 <0>        -0.4963
     36 N2         -0.9068   -1.7799    4.6039 N.am      1 <0>        -0.8352
     37 H1          0.9588    1.7776    0.1704 H         1 <0>         0.0636
     38 H2         -0.5606    1.7881   -0.7567 H         1 <0>         0.0568
     39 H3         -0.6039    1.7675    1.0226 H         1 <0>         0.0676
     40 H4          0.4670   -0.4686   -0.7578 H         1 <0>         0.0795
     41 H5          0.4237   -0.4891    1.0215 H         1 <0>         0.0831
     42 H6         -2.5089   -0.4246   -3.0629 H         1 <0>         0.0998
     43 H7         -0.9487    0.1244   -2.4053 H         1 <0>         0.0979
     44 H8          0.8955   -1.4316   -2.1187 H         1 <0>         0.1224
     45 H9          1.9537   -3.5179   -2.8874 H         1 <0>         0.1227
     46 H10         0.6156   -5.2147   -4.0679 H         1 <0>         0.1217
     47 H11        -1.7808   -4.8256   -4.4790 H         1 <0>         0.1237
     48 H12        -2.8408   -2.7429   -3.7030 H         1 <0>         0.1245
     49 H13        -4.4734   -1.6763   -2.5841 H         1 <0>         0.1139
     50 H14        -6.5575   -2.4072   -1.5175 H         1 <0>         0.1241
     51 H15        -6.7528   -2.4708    0.9324 H         1 <0>         0.1304
     52 H16        -6.4145   -3.1730    2.5286 H         1 <0>         0.0676
     53 H17        -5.3761   -2.0889    5.1848 H         1 <0>         0.0662
     54 H18        -6.7371   -3.2242    5.0197 H         1 <0>         0.0864
     55 H19        -5.2441   -4.8496    3.8893 H         1 <0>         0.0689
     56 H20        -3.8831   -3.7144    4.0545 H         1 <0>         0.0760
     57 H21        -2.9011   -3.2601    6.2302 H         1 <0>         0.1179
     58 H22        -2.4664   -4.1114    8.4994 H         1 <0>         0.1178
     59 H23        -3.8737   -5.9035    9.4326 H         1 <0>         0.1164
     60 H24        -5.7161   -6.8439    8.0969 H         1 <0>         0.1183
     61 H25        -6.1560   -5.9869    5.8308 H         1 <0>         0.1216
     62 H26        -0.9241   -0.9061    5.0246 H         1 <0>         0.4093
     63 H27        -0.5650   -2.5460    5.0909 H         1 <0>         0.4047
@<TRIPOS>BOND
     1    1    2 1
     2    1   37 1
     3    1   38 1
     4    1   39 1
     5    2    3 1
     6    2   40 1
     7    2   41 1
     8    3    7 1
     9    3    4 2
    10    4    5 1
    11    4   32 1
    12    5   18 ar
    13    5    6 ar
    14    6    7 1
    15    6   15 ar
    16    7    8 1
    17    8    9 1
    18    8   42 1
    19    8   43 1
    20    9   14 ar
    21    9   10 ar
    22   10   11 ar
    23   10   44 1
    24   11   12 ar
    25   11   45 1
    26   12   13 ar
    27   12   46 1
    28   13   14 ar
    29   13   47 1
    30   14   48 1
    31   15   16 ar
    32   15   49 1
    33   16   17 ar
    34   16   50 1
    35   17   18 ar
    36   17   51 1
    37   18   19 1
    38   19   20 1
    39   20   21 1
    40   20   29 1
    41   20   52 1
    42   21   22 1
    43   21   53 1
    44   21   54 1
    45   22   23 1
    46   22   55 1
    47   22   56 1
    48   23   28 ar
    49   23   24 ar
    50   24   25 ar
    51   24   57 1
    52   25   26 ar
    53   25   58 1
    54   26   27 ar
    55   26   59 1
    56   27   28 ar
    57   27   60 1
    58   28   61 1
    59   29   30 2
    60   29   31 1
    61   32   33 2
    62   32   34 1
    63   34   35 2
    64   34   36 am
    65   36   62 1
    66   36   63 1
@<TRIPOS>MOLECULE
CHEMBL517821
   60    63     0     0     0
SMALL
USER_CHARGES

@<TRIPOS>ATOM
      1 C1          0.4707    1.3589    1.0330 C.3       1 <0>        -0.1481
      2 C2          0.4293   -0.1530    0.8021 C.3       1 <0>        -0.0606
      3 C3          1.4104   -0.8291    1.7248 C.2       1 <0>        -0.0522
      4 C4          2.7218   -1.0110    1.5019 C.2       1 <0>        -0.0018
      5 N1          3.2961   -1.6657    2.5644 N.pl3     1 <0>        -0.3132
      6 C5          4.5887   -2.0567    2.7716 C.2       1 <0>         0.0207
      7 C6          4.9515   -2.6998    3.9050 C.2       1 <0>        -0.1071
      8 C7          4.0027   -2.9787    4.8945 C.2       1 <0>        -0.2170
      9 C8          2.6908   -2.5881    4.6976 C.2       1 <0>         0.1549
     10 C9          2.3467   -1.9234    3.5114 C.2       1 <0>         0.1026
     11 C10         1.1157   -1.4071    3.0385 C.2       1 <0>        -0.2404
     12 C11        -0.1312   -1.4441    3.6927 C.2       1 <0>         0.4489
     13 O1         -0.4960   -0.4942    4.3627 O.2       1 <0>        -0.4110
     14 C12        -1.0024   -2.6428    3.5654 C.2       1 <0>         0.4900
     15 O2         -0.6012   -3.6252    2.9749 O.2       1 <0>        -0.5060
     16 N2         -2.2372   -2.6387    4.1055 N.am      1 <0>        -0.8280
     17 O3          1.7473   -2.8452    5.6407 O.3       1 <0>        -0.2860
     18 C13         2.1515   -3.6273    6.7663 C.3       1 <0>         0.0046
     19 C14         0.9549   -3.9089    7.6381 C.2       1 <0>         0.3518
     20 O4         -0.1460   -3.5630    7.2824 O.2       1 <0>        -0.4268
     21 C15         1.1323   -4.6222    8.9537 C.3       1 <0>        -0.1952
     22 C16         3.4570   -0.5629    0.2650 C.3       1 <0>        -0.0077
     23 C17         3.3495   -1.6271   -0.7965 C.ar      1 <0>        -0.0717
     24 C18         2.5654   -2.7425   -0.5806 C.ar      1 <0>        -0.1077
     25 C19         2.4659   -3.7199   -1.5539 C.ar      1 <0>        -0.1123
     26 C20         3.1502   -3.5857   -2.7487 C.ar      1 <0>        -0.1189
     27 C21         3.9365   -2.4745   -2.9754 C.ar      1 <0>        -0.1036
     28 C22         4.0366   -1.4843   -2.0000 C.ar      1 <0>        -0.0472
     29 C23         4.8765   -0.2847   -2.2401 C.ar      1 <0>        -0.0461
     30 C24         4.3196    0.9891   -2.1460 C.ar      1 <0>        -0.1081
     31 C25         5.1056    2.1013   -2.3698 C.ar      1 <0>        -0.1170
     32 C26         6.4437    1.9532   -2.6871 C.ar      1 <0>        -0.1182
     33 C27         7.0017    0.6911   -2.7823 C.ar      1 <0>        -0.1180
     34 C28         6.2263   -0.4278   -2.5548 C.ar      1 <0>        -0.1069
     35 H1          1.4938    1.7164    0.9164 H         1 <0>         0.0571
     36 H2         -0.1726    1.8552    0.3064 H         1 <0>         0.0617
     37 H3          0.1204    1.5823    2.0407 H         1 <0>         0.0595
     38 H4         -0.5752   -0.5241    1.0049 H         1 <0>         0.0709
     39 H5          0.6948   -0.3699   -0.2326 H         1 <0>         0.0809
     40 H6          5.3335   -1.8490    2.0176 H         1 <0>         0.1640
     41 H7          5.9792   -3.0000    4.0466 H         1 <0>         0.1525
     42 H8          4.2908   -3.4925    5.7997 H         1 <0>         0.1430
     43 H9         -2.5853   -1.8307    4.5139 H         1 <0>         0.4095
     44 H10        -2.7779   -3.4439    4.0859 H         1 <0>         0.4070
     45 H11         2.5785   -4.5686    6.4202 H         1 <0>         0.1030
     46 H12         2.8983   -3.0789    7.3405 H         1 <0>         0.1021
     47 H13         1.3063   -3.8908    9.7429 H         1 <0>         0.1028
     48 H14         0.2329   -5.1947    9.1807 H         1 <0>         0.0948
     49 H15         1.9858   -5.2970    8.8889 H         1 <0>         0.0892
     50 H16         3.0169    0.3637   -0.1035 H         1 <0>         0.1050
     51 H17         4.5066   -0.3956    0.5069 H         1 <0>         0.0853
     52 H18         2.0290   -2.8523    0.3504 H         1 <0>         0.1284
     53 H19         1.8519   -4.5913   -1.3805 H         1 <0>         0.1226
     54 H20         3.0693   -4.3521   -3.5053 H         1 <0>         0.1237
     55 H21         4.4707   -2.3709   -3.9083 H         1 <0>         0.1236
     56 H22         3.2748    1.1058   -1.8986 H         1 <0>         0.1241
     57 H23         4.6748    3.0891   -2.2975 H         1 <0>         0.1244
     58 H24         7.0551    2.8263   -2.8614 H         1 <0>         0.1223
     59 H25         8.0470    0.5812   -3.0306 H         1 <0>         0.1235
     60 H26         6.6640   -1.4127   -2.6249 H         1 <0>         0.1225
@<TRIPOS>BOND
     1    1    2 1
     2    1   35 1
     3    1   36 1
     4    1   37 1
     5    2    3 1
     6    2   38 1
     7    2   39 1
     8    3   11 1
     9    3    4 2
    10    4    5 1
    11    4   22 1
    12    5   10 1
    13    5    6 1
    14    6    7 2
    15    6   40 1
    16    7    8 1
    17    7   41 1
    18    8    9 2
    19    8   42 1
    20    9   10 1
    21    9   17 1
    22   10   11 2
    23   11   12 1
    24   12   13 2
    25   12   14 1
    26   14   15 2
    27   14   16 am
    28   16   43 1
    29   16   44 1
    30   17   18 1
    31   18   19 1
    32   18   45 1
    33   18   46 1
    34   19   20 2
    35   19   21 1
    36   21   47 1
    37   21   48 1
    38   21   49 1
    39   22   23 1
    40   22   50 1
    41   22   51 1
    42   23   28 ar
    43   23   24 ar
    44   24   25 ar
    45   24   52 1
    46   25   26 ar
    47   25   53 1
    48   26   27 ar
    49   26   54 1
    50   27   28 ar
    51   27   55 1
    52   28   29 1
    53   29   34 ar
    54   29   30 ar
    55   30   31 ar
    56   30   56 1
    57   31   32 ar
    58   31   57 1
    59   32   33 ar
    60   32   58 1
    61   33   34 ar
    62   33   59 1
    63   34   60 1
@<TRIPOS>MOLECULE
CHEMBL478821
   55    58     0     0     0
SMALL
USER_CHARGES

@<TRIPOS>ATOM
      1 C1          0.4844    1.3612    1.0214 C.3       1 <0>        -0.1481
      2 C2          0.4375   -0.1520    0.8000 C.3       1 <0>        -0.0603
      3 C3          1.4184   -0.8256    1.7247 C.2       1 <0>        -0.0515
      4 C4          2.7286   -1.0133    1.5000 C.2       1 <0>        -0.0035
      5 N1          3.3031   -1.6633    2.5653 N.pl3     1 <0>        -0.3126
      6 C5          4.5949   -2.0573    2.7722 C.2       1 <0>         0.0176
      7 C6          4.9580   -2.6946    3.9087 C.2       1 <0>        -0.1057
      8 C7          4.0105   -2.9642    4.9020 C.2       1 <0>        -0.2156
      9 C8          2.6994   -2.5703    4.7055 C.2       1 <0>         0.1543
     10 C9          2.3549   -1.9119    3.5160 C.2       1 <0>         0.1047
     11 C10         1.1246   -1.3945    3.0426 C.2       1 <0>        -0.2472
     12 C11        -0.1209   -1.4233    3.6997 C.2       1 <0>         0.4507
     13 O1         -0.4813   -0.4678    4.3642 O.2       1 <0>        -0.4125
     14 C12        -0.9961   -2.6201    3.5824 C.2       1 <0>         0.4855
     15 O2         -0.5993   -3.6076    2.9973 O.2       1 <0>        -0.5013
     16 N2         -2.2296   -2.6087    4.1254 N.am      1 <0>        -0.8322
     17 O3          1.7572   -2.8185    5.6524 O.3       1 <0>        -0.3052
     18 C13         2.1619   -3.5932    6.7829 C.3       1 <0>         0.0277
     19 C14         3.4625   -0.5753    0.2588 C.3       1 <0>        -0.0078
     20 C15         3.3493   -1.6458   -0.7958 C.ar      1 <0>        -0.0716
     21 C16         2.5623   -2.7574   -0.5711 C.ar      1 <0>        -0.1076
     22 C17         2.4575   -3.7405   -1.5381 C.ar      1 <0>        -0.1125
     23 C18         3.1395   -3.6159   -2.7353 C.ar      1 <0>        -0.1190
     24 C19         3.9287   -2.5086   -2.9707 C.ar      1 <0>        -0.1037
     25 C20         4.0341   -1.5126   -2.0017 C.ar      1 <0>        -0.0472
     26 C21         4.8771   -0.3172   -2.2512 C.ar      1 <0>        -0.0462
     27 C22         4.3243    0.9589   -2.1639 C.ar      1 <0>        -0.1081
     28 C23         5.1132    2.0673   -2.3965 C.ar      1 <0>        -0.1171
     29 C24         6.4501    1.9131   -2.7158 C.ar      1 <0>        -0.1182
     30 C25         7.0040    0.6487   -2.8044 C.ar      1 <0>        -0.1179
     31 C26         6.2258   -0.4664   -2.5681 C.ar      1 <0>        -0.1069
     32 H1          1.5084    1.7146    0.9003 H         1 <0>         0.0572
     33 H2         -0.1589    1.8551    0.2931 H         1 <0>         0.0615
     34 H3          0.1370    1.5920    2.0285 H         1 <0>         0.0594
     35 H4         -0.5679   -0.5185    1.0073 H         1 <0>         0.0705
     36 H5          0.7000   -0.3762   -0.2339 H         1 <0>         0.0807
     37 H6          5.3386   -1.8567    2.0152 H         1 <0>         0.1635
     38 H7          5.9850   -2.9973    4.0499 H         1 <0>         0.1517
     39 H8          4.2989   -3.4733    5.8098 H         1 <0>         0.1433
     40 H9         -2.5466   -1.8200    4.5928 H         1 <0>         0.4101
     41 H10        -2.8004   -3.3892    4.0489 H         1 <0>         0.4076
     42 H11         1.3166   -3.7169    7.4599 H         1 <0>         0.1058
     43 H12         2.5057   -4.5720    6.4483 H         1 <0>         0.0617
     44 H13         2.9719   -3.0817    7.3028 H         1 <0>         0.0613
     45 H14         3.0246    0.3504   -0.1146 H         1 <0>         0.1048
     46 H15         4.5132   -0.4099    0.4973 H         1 <0>         0.0851
     47 H16         2.0278   -2.8597    0.3618 H         1 <0>         0.1284
     48 H17         1.8412   -4.6089   -1.3578 H         1 <0>         0.1226
     49 H18         3.0544   -4.3868   -3.4868 H         1 <0>         0.1236
     50 H19         4.4610   -2.4125   -3.9055 H         1 <0>         0.1236
     51 H20         3.2805    1.0803   -1.9149 H         1 <0>         0.1240
     52 H21         4.6856    3.0568   -2.3294 H         1 <0>         0.1244
     53 H22         7.0638    2.7831   -2.8971 H         1 <0>         0.1224
     54 H23         8.0484    0.5340   -3.0544 H         1 <0>         0.1236
     55 H24         6.6602   -1.4530   -2.6331 H         1 <0>         0.1226
@<TRIPOS>BOND
     1    1    2 1
     2    1   32 1
     3    1   33 1
     4    1   34 1
     5    2    3 1
     6    2   35 1
     7    2   36 1
     8    3   11 1
     9    3    4 2
    10    4    5 1
    11    4   19 1
    12    5   10 1
    13    5    6 1
    14    6    7 2
    15    6   37 1
    16    7    8 1
    17    7   38 1
    18    8    9 2
    19    8   39 1
    20    9   10 1
    21    9   17 1
    22   10   11 2
    23   11   12 1
    24   12   13 2
    25   12   14 1
    26   14   15 2
    27   14   16 am
    28   16   40 1
    29   16   41 1
    30   17   18 1
    31   18   42 1
    32   18   43 1
    33   18   44 1
    34   19   20 1
    35   19   45 1
    36   19   46 1
    37   20   25 ar
    38   20   21 ar
    39   21   22 ar
    40   21   47 1
    41   22   23 ar
    42   22   48 1
    43   23   24 ar
    44   23   49 1
    45   24   25 ar
    46   24   50 1
    47   25   26 1
    48   26   31 ar
    49   26   27 ar
    50   27   28 ar
    51   27   51 1
    52   28   29 ar
    53   28   52 1
    54   29   30 ar
    55   29   53 1
    56   30   31 ar
    57   30   54 1
    58   31   55 1
@<TRIPOS>MOLECULE
CHEMBL358163
   48    51     0     0     0
SMALL
USER_CHARGES

@<TRIPOS>ATOM
      1 C1         -0.1536    1.3699    0.2020 C.ar      1 <0>        -0.1120
      2 C2          1.0245    2.0926    0.1773 C.ar      1 <0>        -0.1201
      3 C3          2.2381    1.4341    0.1107 C.ar      1 <0>        -0.0948
      4 C4          2.2735    0.0528    0.0692 C.ar      1 <0>        -0.1142
      5 C5          1.0954   -0.6699    0.0948 C.ar      1 <0>        -0.1006
      6 C6         -0.1182   -0.0113    0.1600 C.ar      1 <0>        -0.1209
      7 C7          3.5965   -0.6651   -0.0044 C.3       1 <0>         0.1485
      8 N1          4.0802   -0.9378    1.3513 N.pl3     1 <0>        -0.4535
      9 C8          4.8767   -0.0828    2.0871 C.ar      1 <0>         0.1356
     10 C9          5.4207    1.1707    1.8216 C.ar      1 <0>        -0.1805
     11 C10         6.1965    1.8017    2.7702 C.ar      1 <0>        -0.0509
     12 C11         6.4448    1.2011    3.9946 C.ar      1 <0>        -0.2481
     13 C12         5.9133   -0.0444    4.2793 C.ar      1 <0>         0.1868
     14 C13         5.1261   -0.6920    3.3253 C.ar      1 <0>        -0.0961
     15 C14         4.4193   -1.9867    3.2880 C.2       1 <0>        -0.2117
     16 C15         3.8044   -2.0530    2.0517 C.2       1 <0>         0.1517
     17 C16         2.9582   -3.1999    1.5621 C.3       1 <0>        -0.1084
     18 C17         2.4583   -4.2037    2.6031 C.3       1 <0>        -0.1768
     19 C18         3.5653   -4.6030    1.6252 C.3       1 <0>        -0.1683
     20 C19         4.3739   -2.9936    4.3469 C.2       1 <0>         0.4453
     21 O1          3.5341   -2.9174    5.2225 O.2       1 <0>        -0.4057
     22 C20         5.3578   -4.1144    4.3529 C.2       1 <0>         0.4956
     23 O2          6.2593   -4.1349    3.5403 O.2       1 <0>        -0.5076
     24 N2          5.2460   -5.1045    5.2605 N.am      1 <0>        -0.8252
     25 O3          6.1560   -0.6333    5.4794 O.3       1 <0>        -0.2777
     26 C21         6.9702    0.0903    6.4043 C.3       1 <0>        -0.0074
     27 C22         7.1288   -0.7130    7.6694 C.2       1 <0>         0.5020
     28 O4          6.5941   -1.8042    7.7697 O.co2     1 <0>        -0.6687
     29 O5          7.7918   -0.2719    8.5927 O.co2     1 <0>        -0.6881
     30 H1         -1.1016    1.8843    0.2585 H         1 <0>         0.1224
     31 H2          0.9968    3.1718    0.2098 H         1 <0>         0.1240
     32 H3          3.1585    1.9987    0.0908 H         1 <0>         0.1240
     33 H4          1.1231   -1.7491    0.0620 H         1 <0>         0.1215
     34 H5         -1.0386   -0.5760    0.1795 H         1 <0>         0.1234
     35 H6          3.4703   -1.6054   -0.5411 H         1 <0>         0.0995
     36 H7          4.3197   -0.0412   -0.5296 H         1 <0>         0.1007
     37 H8          5.2350    1.6491    0.8714 H         1 <0>         0.1162
     38 H9          6.6157    2.7739    2.5572 H         1 <0>         0.1257
     39 H10         7.0551    1.7066    4.7284 H         1 <0>         0.1312
     40 H11         2.2995   -2.9738    0.7237 H         1 <0>         0.1194
     41 H12         2.7414   -4.0345    3.6420 H         1 <0>         0.1020
     42 H13         1.4704   -4.6380    2.4496 H         1 <0>         0.1082
     43 H14         3.3056   -5.2999    0.8284 H         1 <0>         0.1054
     44 H15         4.5766   -4.6964    2.0208 H         1 <0>         0.1096
     45 H16         4.5256   -5.0881    5.9099 H         1 <0>         0.4106
     46 H17         5.8860   -5.8334    5.2644 H         1 <0>         0.4063
     47 H18         7.9504    0.2696    5.9625 H         1 <0>         0.0609
     48 H19         6.4964    1.0441    6.6366 H         1 <0>         0.0609
@<TRIPOS>BOND
     1    1    6 ar
     2    1    2 ar
     3    1   30 1
     4    2    3 ar
     5    2   31 1
     6    3    4 ar
     7    3   32 1
     8    4    5 ar
     9    4    7 1
    10    5    6 ar
    11    5   33 1
    12    6   34 1
    13    7    8 1
    14    7   35 1
    15    7   36 1
    16    8   16 1
    17    8    9 1
    18    9   14 ar
    19    9   10 ar
    20   10   11 ar
    21   10   37 1
    22   11   12 ar
    23   11   38 1
    24   12   13 ar
    25   12   39 1
    26   13   14 ar
    27   13   25 1
    28   14   15 1
    29   15   16 2
    30   15   20 1
    31   16   17 1
    32   17   19 1
    33   17   18 1
    34   17   40 1
    35   18   19 1
    36   18   41 1
    37   18   42 1
    38   19   43 1
    39   19   44 1
    40   20   21 2
    41   20   22 1
    42   22   23 2
    43   22   24 am
    44   24   45 1
    45   24   46 1
    46   25   26 1
    47   26   27 1
    48   26   47 1
    49   26   48 1
    50   27   28 2
    51   27   29 1
@<TRIPOS>MOLECULE
CHEMBL514692
   61    64     0     0     0
SMALL
USER_CHARGES

@<TRIPOS>ATOM
      1 C1         -1.6965    1.6913    0.7651 C.3       1 <0>        -0.1506
      2 C2         -1.3395    0.2036    0.7541 C.3       1 <0>        -0.0700
      3 C3         -0.1869   -0.0295   -0.1884 C.2       1 <0>         0.1231
      4 C4         -0.3041   -0.3151   -1.5358 C.2       1 <0>        -0.2094
      5 C5          1.0731   -0.4605   -2.0453 C.ar      1 <0>        -0.0921
      6 C6          1.9145   -0.2466   -0.9435 C.ar      1 <0>         0.1340
      7 N1          1.1143    0.0143    0.1513 N.pl3     1 <0>        -0.4549
      8 C7          1.6138    0.2965    1.4993 C.3       1 <0>         0.1481
      9 C8          1.7528   -0.9946    2.2640 C.ar      1 <0>        -0.1144
     10 C9          0.6896   -1.4776    3.0037 C.ar      1 <0>        -0.1020
     11 C10         0.8170   -2.6619    3.7052 C.ar      1 <0>        -0.1202
     12 C11         2.0076   -3.3634    3.6667 C.ar      1 <0>        -0.1112
     13 C12         3.0705   -2.8808    2.9262 C.ar      1 <0>        -0.1196
     14 C13         2.9416   -1.6987    2.2213 C.ar      1 <0>        -0.0945
     15 C14         3.2936   -0.3191   -1.1145 C.ar      1 <0>        -0.1759
     16 C15         3.8218   -0.5984   -2.3571 C.ar      1 <0>        -0.0527
     17 C16         2.9925   -0.8101   -3.4468 C.ar      1 <0>        -0.2462
     18 C17         1.6179   -0.7431   -3.2989 C.ar      1 <0>         0.1864
     19 O1          0.8043   -0.9509   -4.3669 O.3       1 <0>        -0.2732
     20 C18         1.4276   -1.3494   -5.5895 C.3       1 <0>         0.0964
     21 C19         0.3965   -1.3947   -6.6876 C.2       1 <0>         0.4904
     22 O2          0.7744   -1.6483   -7.9578 O.3       1 <0>        -0.7134
     23 N2         -0.8478   -1.1909   -6.4131 N.2       1 <0>        -1.0312
     24 S1         -1.9931   -1.3434   -7.5994 S.o2      1 <0>         2.6405
     25 O3         -1.6787   -0.3784   -8.5939 O.2       1 <0>        -1.0034
     26 O4         -2.0953   -2.7308   -7.8893 O.2       1 <0>        -1.0063
     27 C20        -3.5361   -0.8603   -6.8990 C.ar      1 <0>        -0.6264
     28 C21        -4.3390   -1.8004   -6.2806 C.ar      1 <0>        -0.0280
     29 C22        -5.5495   -1.4214   -5.7311 C.ar      1 <0>        -0.1528
     30 C23        -5.9569   -0.1023   -5.7996 C.ar      1 <0>        -0.0806
     31 C24        -5.1536    0.8380   -6.4172 C.ar      1 <0>        -0.1425
     32 C25        -3.9411    0.4598   -6.9629 C.ar      1 <0>        -0.0181
     33 C26        -1.5425   -0.4473   -2.3013 C.2       1 <0>         0.4434
     34 O5         -2.0744    0.5392   -2.7720 O.2       1 <0>        -0.4065
     35 C27        -2.1534   -1.7926   -2.5049 C.2       1 <0>         0.4976
     36 O6         -1.6688   -2.7669   -1.9669 O.2       1 <0>        -0.5094
     37 N3         -3.2434   -1.9265   -3.2861 N.am      1 <0>        -0.8257
     38 H1         -0.8339    2.2696    1.0961 H         1 <0>         0.0559
     39 H2         -1.9799    2.0044   -0.2398 H         1 <0>         0.0677
     40 H3         -2.5302    1.8599    1.4467 H         1 <0>         0.0644
     41 H4         -1.0562   -0.1094    1.7590 H         1 <0>         0.0800
     42 H5         -2.2022   -0.3746    0.4231 H         1 <0>         0.0863
     43 H6          2.5858    0.7851    1.4316 H         1 <0>         0.0999
     44 H7          0.9130    0.9517    2.0167 H         1 <0>         0.0990
     45 H8         -0.2405   -0.9296    3.0338 H         1 <0>         0.1229
     46 H9         -0.0134   -3.0389    4.2837 H         1 <0>         0.1235
     47 H10         2.1074   -4.2883    4.2153 H         1 <0>         0.1224
     48 H11         4.0007   -3.4287    2.8964 H         1 <0>         0.1239
     49 H12         3.7708   -1.3236    1.6398 H         1 <0>         0.1235
     50 H13         3.9508   -0.1560   -0.2731 H         1 <0>         0.1159
     51 H14         4.8932   -0.6523   -2.4824 H         1 <0>         0.1261
     52 H15         3.4199   -1.0280   -4.4144 H         1 <0>         0.1329
     53 H16         2.2058   -0.6324   -5.8511 H         1 <0>         0.0826
     54 H17         1.8707   -2.3376   -5.4661 H         1 <0>         0.0834
     55 H18        -4.0208   -2.8311   -6.2271 H         1 <0>         0.1356
     56 H19        -6.1771   -2.1561   -5.2486 H         1 <0>         0.1267
     57 H20        -6.9030    0.1937   -5.3709 H         1 <0>         0.1234
     58 H21        -5.4720    1.8686   -6.4710 H         1 <0>         0.1262
     59 H22        -3.3117    1.1951   -7.4421 H         1 <0>         0.1360
     60 H23        -3.5883   -1.1616   -3.7727 H         1 <0>         0.4095
     61 H24        -3.6830   -2.7879   -3.3618 H         1 <0>         0.4037
@<TRIPOS>BOND
     1    1    2 1
     2    1   38 1
     3    1   39 1
     4    1   40 1
     5    2    3 1
     6    2   41 1
     7    2   42 1
     8    3    7 1
     9    3    4 2
    10    4    5 1
    11    4   33 1
    12    5   18 ar
    13    5    6 ar
    14    6    7 1
    15    6   15 ar
    16    7    8 1
    17    8    9 1
    18    8   43 1
    19    8   44 1
    20    9   14 ar
    21    9   10 ar
    22   10   11 ar
    23   10   45 1
    24   11   12 ar
    25   11   46 1
    26   12   13 ar
    27   12   47 1
    28   13   14 ar
    29   13   48 1
    30   14   49 1
    31   15   16 ar
    32   15   50 1
    33   16   17 ar
    34   16   51 1
    35   17   18 ar
    36   17   52 1
    37   18   19 1
    38   19   20 1
    39   20   21 1
    40   20   53 1
    41   20   54 1
    42   21   22 1
    43   21   23 2
    44   23   24 1
    45   24   25 2
    46   24   26 2
    47   24   27 1
    48   27   32 ar
    49   27   28 ar
    50   28   29 ar
    51   28   55 1
    52   29   30 ar
    53   29   56 1
    54   30   31 ar
    55   30   57 1
    56   31   32 ar
    57   31   58 1
    58   32   59 1
    59   33   34 2
    60   33   35 1
    61   35   36 2
    62   35   37 am
    63   37   60 1
    64   37   61 1
@<TRIPOS>MOLECULE
CHEMBL440174
   55    58     0     0     0
SMALL
USER_CHARGES

@<TRIPOS>ATOM
      1 C1         -0.0184    1.5028    0.0103 C.3       1 <0>        -0.0976
      2 C2          0.0021   -0.0041    0.0020 C.2       1 <0>         0.1046
      3 C3          0.0079   -0.7686   -1.1014 C.2       1 <0>        -0.1672
      4 C4          0.0296   -2.1641   -0.6562 C.ar      1 <0>        -0.0494
      5 C5          0.0435   -3.3930   -1.3198 C.ar      1 <0>        -0.1252
      6 C6          0.0629   -4.5631   -0.5876 C.ar      1 <0>         0.1236
      7 C7          0.0681   -4.5202    0.8044 C.ar      1 <0>        -0.1731
      8 C8          0.0545   -3.3144    1.4689 C.ar      1 <0>        -0.0893
      9 C9          0.0354   -2.1241    0.7494 C.ar      1 <0>         0.0675
     10 N1          0.0234   -0.7953    1.1178 N.pl3     1 <0>        -0.4732
     11 C10         0.0297   -0.3042    2.4980 C.3       1 <0>         0.1518
     12 C11        -1.3887   -0.1553    2.9847 C.ar      1 <0>        -0.1107
     13 C12        -2.0604    1.0390    2.8017 C.ar      1 <0>        -0.1054
     14 C13        -3.3615    1.1757    3.2482 C.ar      1 <0>        -0.1230
     15 C14        -3.9911    0.1179    3.8772 C.ar      1 <0>        -0.1140
     16 C15        -3.3197   -1.0767    4.0593 C.ar      1 <0>        -0.1178
     17 C16        -2.0201   -1.2147    3.6091 C.ar      1 <0>        -0.0957
     18 O1          0.0766   -5.7626   -1.2282 O.3       1 <0>        -0.3282
     19 C17         0.0964   -6.9345   -0.4107 C.3       1 <0>         0.1213
     20 C18         0.1093   -8.1593   -1.2886 C.ar      1 <0>        -0.0576
     21 C19         0.1070   -8.0259   -2.6616 C.ar      1 <0>        -0.1211
     22 C20         0.1188   -9.1493   -3.4691 C.ar      1 <0>        -0.1293
     23 C21         0.1330  -10.4139   -2.9069 C.ar      1 <0>        -0.1414
     24 C22         0.1350  -10.5626   -1.5359 C.ar      1 <0>        -0.0847
     25 C23         0.1294   -9.4325   -0.7140 C.ar      1 <0>        -0.1328
     26 C24         0.1386   -9.5833    0.7536 C.2       1 <0>         0.5202
     27 O2          0.1562  -10.6992    1.2535 O.co2     1 <0>        -0.6838
     28 O3          0.1286   -8.5924    1.4702 O.co2     1 <0>        -0.6840
     29 C25        -0.0059   -0.2832   -2.5281 C.3       1 <0>        -0.0603
     30 C26         1.4102   -0.1010   -3.0103 C.2       1 <0>         0.5131
     31 O4          2.3391   -0.3415   -2.2686 O.2       1 <0>        -0.5268
     32 N2          1.6444    0.3294   -4.2659 N.am      1 <0>        -0.8641
     33 H1          1.0042    1.8801    0.0026 H         1 <0>         0.0765
     34 H2         -0.5455    1.8639   -0.8728 H         1 <0>         0.0802
     35 H3         -0.5286    1.8543    0.9071 H         1 <0>         0.0679
     36 H4          0.0388   -3.4276   -2.3992 H         1 <0>         0.1219
     37 H5          0.0826   -5.4414    1.3679 H         1 <0>         0.1444
     38 H6          0.0587   -3.2928    2.5486 H         1 <0>         0.1172
     39 H7          0.5593   -1.0138    3.1337 H         1 <0>         0.0953
     40 H8          0.5308    0.6630    2.5373 H         1 <0>         0.0938
     41 H9         -1.5685    1.8654    2.3103 H         1 <0>         0.1216
     42 H10        -3.8860    2.1089    3.1058 H         1 <0>         0.1219
     43 H11        -5.0074    0.2249    4.2266 H         1 <0>         0.1219
     44 H12        -3.8115   -1.9030    4.5510 H         1 <0>         0.1250
     45 H13        -1.4968   -2.1492    3.7481 H         1 <0>         0.1241
     46 H14         0.9891   -6.9262    0.2146 H         1 <0>         0.0864
     47 H15        -0.7906   -6.9507    0.2226 H         1 <0>         0.0863
     48 H16         0.0956   -7.0422   -3.1072 H         1 <0>         0.1241
     49 H17         0.1166   -9.0389   -4.5435 H         1 <0>         0.1127
     50 H18         0.1421  -11.2864   -3.5434 H         1 <0>         0.1135
     51 H19         0.1457  -11.5500   -1.0986 H         1 <0>         0.1271
     52 H20        -0.5122   -1.0161   -3.1563 H         1 <0>         0.0999
     53 H21        -0.5337    0.6689   -2.5829 H         1 <0>         0.0954
     54 H22         0.9014    0.5218   -4.8591 H         1 <0>         0.3989
     55 H23         2.5558    0.4467   -4.5763 H         1 <0>         0.3981
@<TRIPOS>BOND
     1    1    2 1
     2    1   33 1
     3    1   34 1
     4    1   35 1
     5    2   10 1
     6    2    3 2
     7    3    4 1
     8    3   29 1
     9    4    9 ar
    10    4    5 ar
    11    5    6 ar
    12    5   36 1
    13    6    7 ar
    14    6   18 1
    15    7    8 ar
    16    7   37 1
    17    8    9 ar
    18    8   38 1
    19    9   10 1
    20   10   11 1
    21   11   12 1
    22   11   39 1
    23   11   40 1
    24   12   17 ar
    25   12   13 ar
    26   13   14 ar
    27   13   41 1
    28   14   15 ar
    29   14   42 1
    30   15   16 ar
    31   15   43 1
    32   16   17 ar
    33   16   44 1
    34   17   45 1
    35   18   19 1
    36   19   20 1
    37   19   46 1
    38   19   47 1
    39   20   25 ar
    40   20   21 ar
    41   21   22 ar
    42   21   48 1
    43   22   23 ar
    44   22   49 1
    45   23   24 ar
    46   23   50 1
    47   24   25 ar
    48   24   51 1
    49   25   26 1
    50   26   27 2
    51   26   28 1
    52   29   30 1
    53   29   52 1
    54   29   53 1
    55   30   31 2
    56   30   32 am
    57   32   54 1
    58   32   55 1
@<TRIPOS>MOLECULE
CHEMBL85885
   79    81     0     0     0
SMALL
USER_CHARGES

@<TRIPOS>ATOM
      1 C1         -0.0187    1.5258    0.0104 C.3       1 <0>        -0.1543
      2 C2          0.0021   -0.0041    0.0020 C.3       1 <0>        -0.1263
      3 C3          0.7182   -0.4975   -1.2568 C.3       1 <0>        -0.1212
      4 C4          0.7390   -2.0273   -1.2652 C.3       1 <0>        -0.1214
      5 C5          1.4551   -2.5207   -2.5240 C.3       1 <0>        -0.1205
      6 C6          1.4758   -4.0506   -2.5324 C.3       1 <0>        -0.1211
      7 C7          2.1920   -4.5440   -3.7912 C.3       1 <0>        -0.1202
      8 C8          2.2127   -6.0738   -3.7996 C.3       1 <0>        -0.1215
      9 C9          2.9289   -6.5673   -5.0584 C.3       1 <0>        -0.1187
     10 C10         2.9496   -8.0971   -5.0668 C.3       1 <0>        -0.1180
     11 C11         3.6658   -8.5905   -6.3257 C.3       1 <0>        -0.1314
     12 C12         3.6865  -10.1203   -6.3341 C.3       1 <0>         0.1182
     13 N1          4.3722  -10.5928   -7.5394 N.am      1 <0>        -0.7223
     14 C13         4.5113  -11.9149   -7.7611 C.2       1 <0>         0.4945
     15 O1          4.0687  -12.7135   -6.9628 O.2       1 <0>        -0.5132
     16 C14         5.2166  -12.4009   -9.0010 C.3       1 <0>         0.0648
     17 N2          5.2365  -13.8658   -9.0090 N.pl3     1 <0>        -0.4736
     18 C15         6.2744  -14.5335   -8.4253 C.2       1 <0>         0.1469
     19 C16         6.2824  -15.8835   -8.4386 C.2       1 <0>        -0.2417
     20 C17         5.2084  -16.5702   -9.0609 C.2       1 <0>         0.5213
     21 O2          5.1918  -17.7915   -9.0861 O.2       1 <0>        -0.5032
     22 N3          4.2121  -15.8707   -9.6205 N.2       1 <0>        -0.5812
     23 C18         4.2178  -14.5526   -9.5933 C.2       1 <0>         0.4014
     24 S1          2.8873  -13.6653  -10.3330 S.3       1 <0>        -0.0104
     25 C19         1.7926  -14.9649  -10.9682 C.3       1 <0>        -0.0518
     26 C20         0.5975  -14.3337  -11.6347 C.ar      1 <0>        -0.0986
     27 C21        -0.5369  -14.0528  -10.8962 C.ar      1 <0>        -0.0657
     28 C22        -1.6333  -13.4735  -11.5063 C.ar      1 <0>        -0.1532
     29 C23        -1.5953  -13.1744  -12.8576 C.ar      1 <0>         0.1124
     30 C24        -0.4585  -13.4561  -13.5962 C.ar      1 <0>        -0.1536
     31 C25         0.6386  -14.0306  -12.9829 C.ar      1 <0>        -0.0662
     32 F1         -2.6667  -12.6085  -13.4552 F         1 <0>        -0.1352
     33 C26         7.4145  -16.6487   -7.8030 C.3       1 <0>        -0.0032
     34 C27         7.0366  -17.0267   -6.3939 C.ar      1 <0>        -0.1863
     35 C28         7.3193  -16.1817   -5.3324 C.ar      1 <0>         0.1504
     36 N4          6.9725  -16.5471   -4.1087 N.ar      1 <0>        -0.5197
     37 C29         6.3661  -17.6974   -3.8939 C.ar      1 <0>         0.2885
     38 N5          6.0813  -18.5259   -4.8786 N.ar      1 <0>        -0.5176
     39 C30         6.3927  -18.2251   -6.1291 C.ar      1 <0>         0.1655
     40 H1          1.0039    1.9031    0.0027 H         1 <0>         0.0533
     41 H2         -0.5459    1.8868   -0.8726 H         1 <0>         0.0533
     42 H3         -0.5289    1.8773    0.9072 H         1 <0>         0.0536
     43 H4          0.5293   -0.3651    0.8851 H         1 <0>         0.0603
     44 H5         -1.0205   -0.3814    0.0098 H         1 <0>         0.0603
     45 H6          0.1910   -0.1364   -2.1398 H         1 <0>         0.0605
     46 H7          1.7408   -0.1202   -1.2645 H         1 <0>         0.0605
     47 H8          1.2661   -2.3884   -0.3821 H         1 <0>         0.0606
     48 H9         -0.2836   -2.4046   -1.2575 H         1 <0>         0.0606
     49 H10         0.9279   -2.1597   -3.4071 H         1 <0>         0.0604
     50 H11         2.4777   -2.1435   -2.5317 H         1 <0>         0.0604
     51 H12         2.0030   -4.4117   -1.6494 H         1 <0>         0.0607
     52 H13         0.4533   -4.4279   -2.5247 H         1 <0>         0.0607
     53 H14         1.6648   -4.1829   -4.6743 H         1 <0>         0.0606
     54 H15         3.2146   -4.1667   -3.7990 H         1 <0>         0.0605
     55 H16         2.7399   -6.4349   -2.9166 H         1 <0>         0.0616
     56 H17         1.1901   -6.4511   -3.7919 H         1 <0>         0.0617
     57 H18         2.4017   -6.2062   -5.9415 H         1 <0>         0.0622
     58 H19         3.9515   -6.1900   -5.0662 H         1 <0>         0.0620
     59 H20         3.4768   -8.4582   -4.1838 H         1 <0>         0.0660
     60 H21         1.9270   -8.4744   -5.0591 H         1 <0>         0.0663
     61 H22         3.1386   -8.2294   -7.2087 H         1 <0>         0.0712
     62 H23         4.6884   -8.2132   -6.3334 H         1 <0>         0.0706
     63 H24         4.2137  -10.4814   -5.4510 H         1 <0>         0.0708
     64 H25         2.6639  -10.4976   -6.3263 H         1 <0>         0.0717
     65 H26         4.7262   -9.9541   -8.1779 H         1 <0>         0.4040
     66 H27         4.6895  -12.0398   -9.8841 H         1 <0>         0.1332
     67 H28         6.2392  -12.0236   -9.0087 H         1 <0>         0.1371
     68 H29         7.0807  -13.9876   -7.9581 H         1 <0>         0.1742
     69 H30         2.3336  -15.5734  -11.6929 H         1 <0>         0.1152
     70 H31         1.4584  -15.5938  -10.1430 H         1 <0>         0.1140
     71 H32        -0.5665  -14.2865   -9.8422 H         1 <0>         0.1382
     72 H33        -2.5196  -13.2545  -10.9293 H         1 <0>         0.1409
     73 H34        -0.4279  -13.2235  -14.6505 H         1 <0>         0.1412
     74 H35         1.5270  -14.2464  -13.5578 H         1 <0>         0.1389
     75 H36         7.6123  -17.5515   -8.3807 H         1 <0>         0.1001
     76 H37         8.3088  -16.0258   -7.7846 H         1 <0>         0.0889
     77 H38         7.8163  -15.2379   -5.5015 H         1 <0>         0.1622
     78 H39         6.0956  -17.9685   -2.8841 H         1 <0>         0.1959
     79 H40         6.1522  -18.9063   -6.9320 H         1 <0>         0.1730
@<TRIPOS>BOND
     1    1    2 1
     2    1   40 1
     3    1   41 1
     4    1   42 1
     5    2    3 1
     6    2   43 1
     7    2   44 1
     8    3    4 1
     9    3   45 1
    10    3   46 1
    11    4    5 1
    12    4   47 1
    13    4   48 1
    14    5    6 1
    15    5   49 1
    16    5   50 1
    17    6    7 1
    18    6   51 1
    19    6   52 1
    20    7    8 1
    21    7   53 1
    22    7   54 1
    23    8    9 1
    24    8   55 1
    25    8   56 1
    26    9   10 1
    27    9   57 1
    28    9   58 1
    29   10   11 1
    30   10   59 1
    31   10   60 1
    32   11   12 1
    33   11   61 1
    34   11   62 1
    35   12   13 1
    36   12   63 1
    37   12   64 1
    38   13   14 am
    39   13   65 1
    40   14   15 2
    41   14   16 1
    42   16   17 1
    43   16   66 1
    44   16   67 1
    45   17   23 1
    46   17   18 1
    47   18   19 2
    48   18   68 1
    49   19   20 1
    50   19   33 1
    51   20   21 2
    52   20   22 1
    53   22   23 2
    54   23   24 1
    55   24   25 1
    56   25   26 1
    57   25   69 1
    58   25   70 1
    59   26   31 ar
    60   26   27 ar
    61   27   28 ar
    62   27   71 1
    63   28   29 ar
    64   28   72 1
    65   29   30 ar
    66   29   32 1
    67   30   31 ar
    68   30   73 1
    69   31   74 1
    70   33   34 1
    71   33   75 1
    72   33   76 1
    73   34   39 ar
    74   34   35 ar
    75   35   36 ar
    76   35   77 1
    77   36   37 ar
    78   37   38 ar
    79   37   78 1
    80   38   39 ar
    81   39   79 1
@<TRIPOS>MOLECULE
CHEMBL434129
   49    52     0     0     0
SMALL
USER_CHARGES

@<TRIPOS>ATOM
      1 C1         -0.1078    1.4133   -0.0278 C.3       1 <0>         0.0291
      2 O1         -0.1758   -0.0124   -0.0986 O.3       1 <0>        -0.3195
      3 C2          0.5123   -0.6141   -1.1054 C.ar      1 <0>         0.1009
      4 C3          1.2437    0.1587   -2.0040 C.ar      1 <0>        -0.1791
      5 C4          1.9464   -0.4343   -3.0288 C.ar      1 <0>        -0.0882
      6 C5          1.9300   -1.8176   -3.1740 C.ar      1 <0>         0.0751
      7 C6          1.1925   -2.6006   -2.2683 C.ar      1 <0>        -0.0463
      8 C7          0.4876   -1.9887   -1.2293 C.ar      1 <0>        -0.1084
      9 C8          1.3788   -3.9913   -2.6894 C.2       1 <0>        -0.1532
     10 C9          2.1765   -3.9715   -3.7689 C.2       1 <0>         0.1412
     11 N1          2.5166   -2.6821   -4.0741 N.pl3     1 <0>        -0.4672
     12 C10         3.3750   -2.2797   -5.1910 C.3       1 <0>         0.1452
     13 C11         4.8104   -2.2433   -4.7335 C.ar      1 <0>        -0.1115
     14 C12         5.3379   -1.0804   -4.2042 C.ar      1 <0>        -0.0991
     15 C13         6.6546   -1.0470   -3.7846 C.ar      1 <0>        -0.1198
     16 C14         7.4437   -2.1768   -3.8939 C.ar      1 <0>        -0.1114
     17 C15         6.9159   -3.3400   -4.4224 C.ar      1 <0>        -0.1214
     18 C16         5.5980   -3.3746   -4.8380 C.ar      1 <0>        -0.0988
     19 C17         2.6302   -5.1895   -4.5317 C.3       1 <0>        -0.1059
     20 C18         2.4719   -5.1696   -6.0533 C.3       1 <0>        -0.1759
     21 C19         1.5531   -6.0463   -5.1999 C.3       1 <0>        -0.1592
     22 C20         0.7877   -5.2129   -2.0341 C.3       1 <0>        -0.0548
     23 C21        -0.6054   -5.4414   -2.5615 C.2       1 <0>         0.5142
     24 O2         -1.0722   -4.6865   -3.3881 O.2       1 <0>        -0.5129
     25 N2         -1.3325   -6.4845   -2.1147 N.am      1 <0>        -0.5858
     26 N3         -2.5952   -6.6916   -2.5928 N.3       1 <0>        -0.6042
     27 H1          0.9297    1.7216    0.1014 H         1 <0>         0.0530
     28 H2         -0.5022    1.8420   -0.9491 H         1 <0>         0.0533
     29 H3         -0.6990    1.7637    0.8182 H         1 <0>         0.0981
     30 H4          1.2596    1.2332   -1.8962 H         1 <0>         0.1301
     31 H5          2.5100    0.1746   -3.7202 H         1 <0>         0.1193
     32 H6         -0.0766   -2.5871   -0.5294 H         1 <0>         0.1263
     33 H7          3.2713   -2.9965   -6.0055 H         1 <0>         0.1028
     34 H8          3.0792   -1.2897   -5.5382 H         1 <0>         0.0928
     35 H9          4.7214   -0.1977   -4.1188 H         1 <0>         0.1200
     36 H10         7.0670   -0.1382   -3.3717 H         1 <0>         0.1239
     37 H11         8.4726   -2.1505   -3.5667 H         1 <0>         0.1233
     38 H12         7.5325   -4.2225   -4.5081 H         1 <0>         0.1237
     39 H13         5.1846   -4.2844   -5.2475 H         1 <0>         0.1223
     40 H14         3.5001   -5.7034   -4.1225 H         1 <0>         0.1238
     41 H15         2.0395   -4.2756   -6.5027 H         1 <0>         0.0973
     42 H16         3.2377   -5.6704   -6.6456 H         1 <0>         0.1030
     43 H17         1.7146   -7.1239   -5.2308 H         1 <0>         0.1007
     44 H18         0.5164   -5.7291   -5.0879 H         1 <0>         0.1042
     45 H19         1.4077   -6.0810   -2.2576 H         1 <0>         0.0988
     46 H20         0.7477   -5.0630   -0.9552 H         1 <0>         0.1011
     47 H21        -0.9591   -7.0882   -1.4536 H         1 <0>         0.3991
     48 H22        -2.5928   -6.7691   -3.5988 H         1 <0>         0.3444
     49 H23        -3.0135   -7.5058   -2.1684 H         1 <0>         0.3557
@<TRIPOS>BOND
     1    1    2 1
     2    1   27 1
     3    1   28 1
     4    1   29 1
     5    2    3 1
     6    3    8 ar
     7    3    4 ar
     8    4    5 ar
     9    4   30 1
    10    5    6 ar
    11    5   31 1
    12    6   11 1
    13    6    7 ar
    14    7    8 ar
    15    7    9 1
    16    8   32 1
    17    9   10 2
    18    9   22 1
    19   10   11 1
    20   10   19 1
    21   11   12 1
    22   12   13 1
    23   12   33 1
    24   12   34 1
    25   13   18 ar
    26   13   14 ar
    27   14   15 ar
    28   14   35 1
    29   15   16 ar
    30   15   36 1
    31   16   17 ar
    32   16   37 1
    33   17   18 ar
    34   17   38 1
    35   18   39 1
    36   19   21 1
    37   19   20 1
    38   19   40 1
    39   20   21 1
    40   20   41 1
    41   20   42 1
    42   21   43 1
    43   21   44 1
    44   22   23 1
    45   22   45 1
    46   22   46 1
    47   23   24 2
    48   23   25 am
    49   25   26 1
    50   25   47 1
    51   26   48 1
    52   26   49 1
@<TRIPOS>MOLECULE
CHEMBL146055
   57    59     0     0     0
SMALL
USER_CHARGES

@<TRIPOS>ATOM
      1 C1         -0.0184    1.5028    0.0103 C.3       1 <0>        -0.1074
      2 C2          0.0021   -0.0041    0.0020 C.2       1 <0>         0.1089
      3 C3          0.0079   -0.7686   -1.1014 C.2       1 <0>        -0.1685
      4 C4          0.0296   -2.1641   -0.6562 C.ar      1 <0>        -0.0469
      5 C5          0.0435   -3.3930   -1.3198 C.ar      1 <0>        -0.1208
      6 C6          0.0629   -4.5631   -0.5876 C.ar      1 <0>         0.1153
      7 C7          0.0681   -4.5202    0.8044 C.ar      1 <0>        -0.1803
      8 C8          0.0545   -3.3144    1.4689 C.ar      1 <0>        -0.0891
      9 C9          0.0354   -2.1241    0.7494 C.ar      1 <0>         0.0658
     10 N1          0.0234   -0.7953    1.1178 N.pl3     1 <0>        -0.4752
     11 C10         0.0297   -0.3042    2.4980 C.3       1 <0>         0.1149
     12 C11        -1.4104   -0.1530    2.9921 C.3       1 <0>        -0.1049
     13 C12        -2.1170    0.9336    2.1792 C.3       1 <0>        -0.1178
     14 C13        -3.5571    1.0848    2.6733 C.3       1 <0>        -0.1193
     15 C14        -3.5503    1.4775    4.1520 C.3       1 <0>        -0.1197
     16 C15        -2.8437    0.3909    4.9650 C.3       1 <0>        -0.1188
     17 C16        -1.4036    0.2397    4.4709 C.3       1 <0>        -0.1120
     18 O1          0.0766   -5.7626   -1.2282 O.3       1 <0>        -0.3142
     19 C17         0.0964   -6.9345   -0.4107 C.3       1 <0>         0.0606
     20 C18         0.1095   -8.1780   -1.3020 C.3       1 <0>        -0.0918
     21 C19         0.1307   -9.4327   -0.4267 C.3       1 <0>        -0.1802
     22 C20         0.1436  -10.6575   -1.3046 C.2       1 <0>         0.4911
     23 O2          0.1365  -10.5379   -2.5180 O.co2     1 <0>        -0.6957
     24 O3          0.1612  -11.7680   -0.8016 O.co2     1 <0>        -0.7058
     25 C21        -0.0059   -0.2832   -2.5281 C.3       1 <0>        -0.0618
     26 C22         1.4102   -0.1010   -3.0103 C.2       1 <0>         0.5135
     27 O4          2.3391   -0.3415   -2.2686 O.2       1 <0>        -0.5286
     28 N2          1.6444    0.3294   -4.2659 N.am      1 <0>        -0.8632
     29 H1          1.0042    1.8801    0.0026 H         1 <0>         0.0749
     30 H2         -0.5455    1.8639   -0.8728 H         1 <0>         0.0800
     31 H3         -0.5286    1.8543    0.9071 H         1 <0>         0.0782
     32 H4          0.0388   -3.4276   -2.3992 H         1 <0>         0.1250
     33 H5          0.0826   -5.4414    1.3679 H         1 <0>         0.1314
     34 H6          0.0587   -3.2928    2.5486 H         1 <0>         0.1177
     35 H7          0.5593   -1.0138    3.1337 H         1 <0>         0.0855
     36 H8          0.5308    0.6630    2.5373 H         1 <0>         0.0852
     37 H9         -1.9377   -1.0991    2.8698 H         1 <0>         0.0785
     38 H10        -1.5897    1.8797    2.3015 H         1 <0>         0.0636
     39 H11        -2.1218    0.6539    1.1257 H         1 <0>         0.0704
     40 H12        -4.0605    1.8589    2.0941 H         1 <0>         0.0615
     41 H13        -4.0845    0.1388    2.5510 H         1 <0>         0.0618
     42 H14        -3.0230    2.4235    4.2743 H         1 <0>         0.0604
     43 H15        -4.5763    1.5852    4.5041 H         1 <0>         0.0602
     44 H16        -2.8389    0.6706    6.0185 H         1 <0>         0.0623
     45 H17        -3.3710   -0.5552    4.8427 H         1 <0>         0.0626
     46 H18        -0.9002   -0.5344    5.0501 H         1 <0>         0.0643
     47 H19        -0.8763    1.1857    4.5932 H         1 <0>         0.0639
     48 H20         0.9891   -6.9262    0.2146 H         1 <0>         0.0553
     49 H21        -0.7906   -6.9507    0.2226 H         1 <0>         0.0553
     50 H22        -0.7833   -8.1862   -1.9273 H         1 <0>         0.0707
     51 H23         0.9965   -8.1617   -1.9353 H         1 <0>         0.0707
     52 H24         1.0235   -9.4244    0.1986 H         1 <0>         0.0587
     53 H25        -0.7563   -9.4489    0.2066 H         1 <0>         0.0586
     54 H26        -0.5122   -1.0161   -3.1563 H         1 <0>         0.1008
     55 H27        -0.5337    0.6689   -2.5829 H         1 <0>         0.0963
     56 H28         0.9014    0.5218   -4.8591 H         1 <0>         0.3995
     57 H29         2.5558    0.4467   -4.5763 H         1 <0>         0.3987
@<TRIPOS>BOND
     1    1    2 1
     2    1   29 1
     3    1   30 1
     4    1   31 1
     5    2   10 1
     6    2    3 2
     7    3    4 1
     8    3   25 1
     9    4    9 ar
    10    4    5 ar
    11    5    6 ar
    12    5   32 1
    13    6    7 ar
    14    6   18 1
    15    7    8 ar
    16    7   33 1
    17    8    9 ar
    18    8   34 1
    19    9   10 1
    20   10   11 1
    21   11   12 1
    22   11   35 1
    23   11   36 1
    24   12   17 1
    25   12   13 1
    26   12   37 1
    27   13   14 1
    28   13   38 1
    29   13   39 1
    30   14   15 1
    31   14   40 1
    32   14   41 1
    33   15   16 1
    34   15   42 1
    35   15   43 1
    36   16   17 1
    37   16   44 1
    38   16   45 1
    39   17   46 1
    40   17   47 1
    41   18   19 1
    42   19   20 1
    43   19   48 1
    44   19   49 1
    45   20   21 1
    46   20   50 1
    47   20   51 1
    48   21   22 1
    49   21   52 1
    50   21   53 1
    51   22   23 2
    52   22   24 1
    53   25   26 1
    54   25   54 1
    55   25   55 1
    56   26   27 2
    57   26   28 am
    58   28   56 1
    59   28   57 1
@<TRIPOS>MOLECULE
CHEMBL423762
   55    58     0     0     0
SMALL
USER_CHARGES

@<TRIPOS>ATOM
      1 C1         -0.3578    2.3497    0.1886 C.3       1 <0>        -0.0879
      2 C2         -0.1753    0.8777   -0.0776 C.2       1 <0>         0.0689
      3 C3         -0.1462    0.3122   -1.2943 C.2       1 <0>        -0.1133
      4 C4          0.0490   -1.1257   -1.0937 C.ar      1 <0>        -0.1238
      5 C5          0.1253   -1.3183    0.2966 C.ar      1 <0>         0.1407
      6 N1         -0.0087   -0.0810    0.8859 N.pl3     1 <0>        -0.4783
      7 C6          0.0195    0.1716    2.3287 C.3       1 <0>         0.1578
      8 C7         -1.3895    0.1896    2.8631 C.ar      1 <0>        -0.0927
      9 C8         -2.4465   -0.1359    2.0371 C.ar      1 <0>        -0.0968
     10 C9         -3.7400   -0.1197    2.5263 C.ar      1 <0>        -0.1124
     11 C10        -3.9822    0.2218    3.8448 C.ar      1 <0>        -0.1185
     12 C11        -2.9329    0.5485    4.6795 C.ar      1 <0>        -0.1059
     13 C12        -1.6271    0.5292    4.1932 C.ar      1 <0>        -0.0450
     14 C13        -0.4943    0.8745    5.0873 C.ar      1 <0>        -0.0463
     15 C14         0.5548   -0.0249    5.2661 C.ar      1 <0>        -0.1096
     16 C15         1.6061    0.3017    6.0985 C.ar      1 <0>        -0.1159
     17 C16         1.6196    1.5192    6.7548 C.ar      1 <0>        -0.1188
     18 C17         0.5805    2.4157    6.5813 C.ar      1 <0>        -0.1184
     19 C18        -0.4730    2.1018    5.7468 C.ar      1 <0>        -0.1053
     20 C19         0.3115   -2.6022    0.8007 C.ar      1 <0>        -0.1878
     21 C20         0.4200   -3.6718   -0.0606 C.ar      1 <0>        -0.0511
     22 C21         0.3454   -3.4867   -1.4336 C.ar      1 <0>        -0.2600
     23 C22         0.1608   -2.2217   -1.9578 C.ar      1 <0>         0.1931
     24 O1          0.0883   -2.0425   -3.3027 O.3       1 <0>        -0.2755
     25 C23         0.2109   -3.2082   -4.1201 C.3       1 <0>        -0.0070
     26 C24         0.1068   -2.8172   -5.5717 C.2       1 <0>         0.5028
     27 O2         -0.0572   -1.6485   -5.8780 O.co2     1 <0>        -0.6711
     28 O3          0.1866   -3.6694   -6.4399 O.co2     1 <0>        -0.6892
     29 C25        -0.2882    1.0218   -2.6163 C.3       1 <0>        -0.0706
     30 C26         1.0723    1.4424   -3.1093 C.2       1 <0>         0.5295
     31 O4          2.0600    1.1908   -2.4520 O.2       1 <0>        -0.5440
     32 N2          1.1915    2.0982   -4.2807 N.am      1 <0>        -0.8556
     33 H1          0.6162    2.8386    0.2100 H         1 <0>         0.0729
     34 H2         -0.9675    2.7889   -0.6010 H         1 <0>         0.0797
     35 H3         -0.8541    2.4864    1.1494 H         1 <0>         0.0633
     36 H4          0.5861   -0.6165    2.8246 H         1 <0>         0.0989
     37 H5          0.4929    1.1347    2.5198 H         1 <0>         0.0961
     38 H6         -2.2631   -0.4032    1.0069 H         1 <0>         0.1309
     39 H7         -4.5642   -0.3744    1.8764 H         1 <0>         0.1239
     40 H8         -4.9943    0.2331    4.2215 H         1 <0>         0.1233
     41 H9         -3.1231    0.8153    5.7086 H         1 <0>         0.1231
     42 H10         0.5451   -0.9759    4.7544 H         1 <0>         0.1234
     43 H11         2.4196   -0.3949    6.2380 H         1 <0>         0.1245
     44 H12         2.4442    1.7707    7.4052 H         1 <0>         0.1219
     45 H13         0.5959    3.3648    7.0964 H         1 <0>         0.1233
     46 H14        -1.2816    2.8043    5.6085 H         1 <0>         0.1233
     47 H15         0.3713   -2.7598    1.8674 H         1 <0>         0.1105
     48 H16         0.5651   -4.6653    0.3373 H         1 <0>         0.1205
     49 H17         0.4326   -4.3353   -2.0959 H         1 <0>         0.1262
     50 H18         1.1772   -3.6789   -3.9390 H         1 <0>         0.0579
     51 H19        -0.5865   -3.9096   -3.8747 H         1 <0>         0.0587
     52 H20        -0.7459    0.3496   -3.3421 H         1 <0>         0.1182
     53 H21        -0.9173    1.9029   -2.4899 H         1 <0>         0.0908
     54 H22         0.4015    2.2995   -4.8064 H         1 <0>         0.4009
     55 H23         2.0672    2.3690   -4.5981 H         1 <0>         0.3957
@<TRIPOS>BOND
     1    1    2 1
     2    1   33 1
     3    1   34 1
     4    1   35 1
     5    2    6 1
     6    2    3 2
     7    3    4 1
     8    3   29 1
     9    4   23 ar
    10    4    5 ar
    11    5    6 1
    12    5   20 ar
    13    6    7 1
    14    7    8 1
    15    7   36 1
    16    7   37 1
    17    8   13 ar
    18    8    9 ar
    19    9   10 ar
    20    9   38 1
    21   10   11 ar
    22   10   39 1
    23   11   12 ar
    24   11   40 1
    25   12   13 ar
    26   12   41 1
    27   13   14 1
    28   14   19 ar
    29   14   15 ar
    30   15   16 ar
    31   15   42 1
    32   16   17 ar
    33   16   43 1
    34   17   18 ar
    35   17   44 1
    36   18   19 ar
    37   18   45 1
    38   19   46 1
    39   20   21 ar
    40   20   47 1
    41   21   22 ar
    42   21   48 1
    43   22   23 ar
    44   22   49 1
    45   23   24 1
    46   24   25 1
    47   25   26 1
    48   25   50 1
    49   25   51 1
    50   26   27 2
    51   26   28 1
    52   29   30 1
    53   29   52 1
    54   29   53 1
    55   30   31 2
    56   30   32 am
    57   32   54 1
    58   32   55 1
@<TRIPOS>MOLECULE
CHEMBL149602
   51    54     0     0     0
SMALL
USER_CHARGES

@<TRIPOS>ATOM
      1 C1         -0.0184    1.5028    0.0103 C.3       1 <0>        -0.1011
      2 C2          0.0021   -0.0041    0.0020 C.2       1 <0>         0.1050
      3 C3          0.0079   -0.7684   -1.1014 C.2       1 <0>        -0.1570
      4 C4          0.0296   -2.1638   -0.6550 C.ar      1 <0>        -0.0839
      5 C5          0.0435   -3.3918   -1.3162 C.ar      1 <0>        -0.0559
      6 C6          0.0630   -4.5648   -0.5748 C.ar      1 <0>        -0.0756
      7 C7          0.0686   -4.5115    0.8230 C.ar      1 <0>        -0.0882
      8 C8          0.0545   -3.3123    1.4746 C.ar      1 <0>        -0.1237
      9 C9          0.0354   -2.1226    0.7518 C.ar      1 <0>         0.1091
     10 N1          0.0234   -0.7953    1.1181 N.pl3     1 <0>        -0.4703
     11 C10         0.0290   -0.3034    2.4980 C.3       1 <0>         0.1497
     12 C11        -1.3897   -0.1548    2.9841 C.ar      1 <0>        -0.1145
     13 C12        -2.0619    1.0390    2.8001 C.ar      1 <0>        -0.1037
     14 C13        -3.3633    1.1753    3.2459 C.ar      1 <0>        -0.1200
     15 C14        -3.9926    0.1176    3.8754 C.ar      1 <0>        -0.1107
     16 C15        -3.3207   -1.0765    4.0586 C.ar      1 <0>        -0.1186
     17 C16        -2.0208   -1.2142    3.6089 C.ar      1 <0>        -0.0976
     18 C17         0.0775   -5.8778   -1.2660 C.ar      1 <0>        -0.0311
     19 C18         0.0773   -5.9351   -2.6583 C.ar      1 <0>        -0.1164
     20 C19         0.0908   -7.1590   -3.2960 C.ar      1 <0>        -0.1156
     21 C20         0.1044   -8.3274   -2.5557 C.ar      1 <0>        -0.1255
     22 C21         0.1042   -8.2764   -1.1734 C.ar      1 <0>        -0.1162
     23 C22         0.0971   -7.0578   -0.5253 C.ar      1 <0>        -0.1167
     24 C23        -0.0059   -0.2834   -2.5281 C.3       1 <0>        -0.0555
     25 C24         1.4102   -0.1019   -3.0106 C.2       1 <0>         0.5115
     26 O1          2.3391   -0.3426   -2.2690 O.2       1 <0>        -0.5125
     27 N2          1.6444    0.3280   -4.2664 N.am      1 <0>        -0.5857
     28 N3          2.9280    0.4925   -4.7037 N.3       1 <0>        -0.6044
     29 H1          1.0042    1.8801    0.0026 H         1 <0>         0.0793
     30 H2         -0.5455    1.8639   -0.8728 H         1 <0>         0.0826
     31 H3         -0.5286    1.8543    0.9071 H         1 <0>         0.0708
     32 H4          0.0388   -3.4295   -2.3955 H         1 <0>         0.1221
     33 H5          0.0837   -5.4289    1.3927 H         1 <0>         0.1270
     34 H6          0.0583   -3.2862    2.5543 H         1 <0>         0.1178
     35 H7          0.5587   -1.0123    3.1343 H         1 <0>         0.0968
     36 H8          0.5295    0.6641    2.5368 H         1 <0>         0.0975
     37 H9         -1.5703    1.8653    2.3083 H         1 <0>         0.1227
     38 H10        -3.8882    2.1082    3.1028 H         1 <0>         0.1247
     39 H11        -5.0091    0.2243    4.2244 H         1 <0>         0.1242
     40 H12        -3.8122   -1.9027    4.5506 H         1 <0>         0.1249
     41 H13        -1.4971   -2.1483    3.7487 H         1 <0>         0.1216
     42 H14         0.0663   -5.0235   -3.2372 H         1 <0>         0.1230
     43 H15         0.0903   -7.2046   -4.3750 H         1 <0>         0.1225
     44 H16         0.1149   -9.2830   -3.0588 H         1 <0>         0.1210
     45 H17         0.1145   -9.1917   -0.6002 H         1 <0>         0.1225
     46 H18         0.1021   -7.0190    0.5540 H         1 <0>         0.1240
     47 H19        -0.5126   -1.0162   -3.1561 H         1 <0>         0.1016
     48 H20        -0.5334    0.6689   -2.5831 H         1 <0>         0.0984
     49 H21         0.9014    0.5205   -4.8596 H         1 <0>         0.3994
     50 H22         2.9457    0.8175   -5.6588 H         1 <0>         0.3561
     51 H23         3.4385    1.1187   -4.0992 H         1 <0>         0.3450
@<TRIPOS>BOND
     1    1    2 1
     2    1   29 1
     3    1   30 1
     4    1   31 1
     5    2   10 1
     6    2    3 2
     7    3    4 1
     8    3   24 1
     9    4    9 ar
    10    4    5 ar
    11    5    6 ar
    12    5   32 1
    13    6    7 ar
    14    6   18 1
    15    7    8 ar
    16    7   33 1
    17    8    9 ar
    18    8   34 1
    19    9   10 1
    20   10   11 1
    21   11   12 1
    22   11   35 1
    23   11   36 1
    24   12   17 ar
    25   12   13 ar
    26   13   14 ar
    27   13   37 1
    28   14   15 ar
    29   14   38 1
    30   15   16 ar
    31   15   39 1
    32   16   17 ar
    33   16   40 1
    34   17   41 1
    35   18   23 ar
    36   18   19 ar
    37   19   20 ar
    38   19   42 1
    39   20   21 ar
    40   20   43 1
    41   21   22 ar
    42   21   44 1
    43   22   23 ar
    44   22   45 1
    45   23   46 1
    46   24   25 1
    47   24   47 1
    48   24   48 1
    49   25   26 2
    50   25   27 am
    51   27   28 1
    52   27   49 1
    53   28   50 1
    54   28   51 1
@<TRIPOS>MOLECULE
CHEMBL346679
   68    69     0     0     0
SMALL
USER_CHARGES

@<TRIPOS>ATOM
      1 C1         -0.0187    1.5258    0.0104 C.3       1 <0>        -0.1541
      2 C2          0.0021   -0.0041    0.0020 C.3       1 <0>        -0.1258
      3 C3         -1.4333   -0.5336    0.0129 C.3       1 <0>        -0.1217
      4 C4         -1.4126   -2.0635    0.0045 C.3       1 <0>        -0.1204
      5 C5         -2.8479   -2.5931    0.0153 C.3       1 <0>        -0.1214
      6 C6         -2.8272   -4.1229    0.0069 C.3       1 <0>        -0.1191
      7 C7         -4.2626   -4.6525    0.0178 C.3       1 <0>        -0.1199
      8 C8         -4.2418   -6.1823    0.0094 C.3       1 <0>        -0.1155
      9 C9         -5.6772   -6.7119    0.0202 C.3       1 <0>        -0.1376
     10 C10        -5.6565   -8.2417    0.0118 C.3       1 <0>         0.1121
     11 N1         -7.0309   -8.7488    0.0222 N.pl3     1 <0>        -0.4786
     12 C11        -7.7596   -9.0218    1.1474 C.2       1 <0>         0.1046
     13 C12        -8.9781   -9.4701    0.8062 C.2       1 <0>        -0.1673
     14 C13        -9.0350   -9.4857   -0.6576 C.ar      1 <0>        -0.0473
     15 C14        -7.7852   -9.0166   -1.1007 C.ar      1 <0>         0.0653
     16 C15        -7.5369   -8.9123   -2.4650 C.ar      1 <0>        -0.0890
     17 C16        -8.5126   -9.2637   -3.3712 C.ar      1 <0>        -0.1803
     18 C17        -9.7520   -9.7250   -2.9357 C.ar      1 <0>         0.1157
     19 C18       -10.0151   -9.8438   -1.5854 C.ar      1 <0>        -0.1206
     20 O1        -10.7044  -10.0673   -3.8440 O.3       1 <0>        -0.3139
     21 C19       -10.3639   -9.9284   -5.2248 C.3       1 <0>         0.0604
     22 C20       -11.5514  -10.3578   -6.0887 C.3       1 <0>        -0.0918
     23 C21       -11.1869  -10.2090   -7.5671 C.3       1 <0>        -0.1802
     24 C22       -12.3565  -10.6321   -8.4180 C.2       1 <0>         0.4911
     25 O2        -13.3863  -11.0169   -7.8908 O.co2     1 <0>        -0.6956
     26 O3        -12.2731  -10.5895   -9.6336 O.co2     1 <0>        -0.7058
     27 C23       -10.0789   -9.8797    1.7503 C.3       1 <0>        -0.0620
     28 C24       -10.9377   -8.6833    2.0699 C.2       1 <0>         0.5135
     29 O4        -10.6810   -7.6042    1.5794 O.2       1 <0>        -0.5285
     30 N2        -11.9909   -8.8124    2.9009 N.am      1 <0>        -0.8630
     31 C25        -7.2672   -8.8454    2.5607 C.3       1 <0>        -0.0933
     32 H1          1.0039    1.9031    0.0027 H         1 <0>         0.0528
     33 H2         -0.5459    1.8868   -0.8726 H         1 <0>         0.0536
     34 H3         -0.5289    1.8773    0.9072 H         1 <0>         0.0531
     35 H4          0.5123   -0.3556   -0.8948 H         1 <0>         0.0603
     36 H5          0.5293   -0.3651    0.8851 H         1 <0>         0.0597
     37 H6         -1.9435   -0.1821    0.9097 H         1 <0>         0.0604
     38 H7         -1.9605   -0.1726   -0.8702 H         1 <0>         0.0611
     39 H8         -0.9024   -2.4150   -0.8923 H         1 <0>         0.0606
     40 H9         -0.8854   -2.4246    0.8875 H         1 <0>         0.0599
     41 H10        -3.3581   -2.2415    0.9121 H         1 <0>         0.0604
     42 H11        -3.3751   -2.2320   -0.8677 H         1 <0>         0.0614
     43 H12        -2.3170   -4.4744   -0.8899 H         1 <0>         0.0611
     44 H13        -2.3000   -4.4840    0.8900 H         1 <0>         0.0601
     45 H14        -4.7728   -4.3010    0.9146 H         1 <0>         0.0616
     46 H15        -4.7898   -4.2914   -0.8653 H         1 <0>         0.0628
     47 H16        -3.7316   -6.5338   -0.8874 H         1 <0>         0.0642
     48 H17        -3.7146   -6.5434    0.8924 H         1 <0>         0.0630
     49 H18        -6.1874   -6.3604    0.9170 H         1 <0>         0.0687
     50 H19        -6.2044   -6.3508   -0.8628 H         1 <0>         0.0703
     51 H20        -5.1463   -8.5933   -0.8850 H         1 <0>         0.0848
     52 H21        -5.1293   -8.6028    0.8949 H         1 <0>         0.0851
     53 H22        -6.5792   -8.5553   -2.8138 H         1 <0>         0.1181
     54 H23        -8.3146   -9.1804   -4.4296 H         1 <0>         0.1319
     55 H24       -10.9774  -10.2004   -1.2488 H         1 <0>         0.1254
     56 H25       -10.1189   -8.8874   -5.4356 H         1 <0>         0.0553
     57 H26        -9.5032  -10.5573   -5.4519 H         1 <0>         0.0555
     58 H27       -11.7964  -11.3988   -5.8779 H         1 <0>         0.0707
     59 H28       -12.4122   -9.7289   -5.8616 H         1 <0>         0.0707
     60 H29       -10.9419   -9.1680   -7.7779 H         1 <0>         0.0586
     61 H30       -10.3261  -10.8380   -7.7942 H         1 <0>         0.0586
     62 H31       -10.6904  -10.6513    1.2824 H         1 <0>         0.1012
     63 H32        -9.6426  -10.2699    2.6698 H         1 <0>         0.0967
     64 H33       -12.1962   -9.6755    3.2932 H         1 <0>         0.3996
     65 H34       -12.5436   -8.0423    3.1066 H         1 <0>         0.3988
     66 H35        -7.5042   -7.8388    2.9050 H         1 <0>         0.0767
     67 H36        -7.7534   -9.5749    3.2085 H         1 <0>         0.0805
     68 H37        -6.1879   -8.9951    2.5908 H         1 <0>         0.0669
@<TRIPOS>BOND
     1    1    2 1
     2    1   32 1
     3    1   33 1
     4    1   34 1
     5    2    3 1
     6    2   35 1
     7    2   36 1
     8    3    4 1
     9    3   37 1
    10    3   38 1
    11    4    5 1
    12    4   39 1
    13    4   40 1
    14    5    6 1
    15    5   41 1
    16    5   42 1
    17    6    7 1
    18    6   43 1
    19    6   44 1
    20    7    8 1
    21    7   45 1
    22    7   46 1
    23    8    9 1
    24    8   47 1
    25    8   48 1
    26    9   10 1
    27    9   49 1
    28    9   50 1
    29   10   11 1
    30   10   51 1
    31   10   52 1
    32   11   15 1
    33   11   12 1
    34   12   13 2
    35   12   31 1
    36   13   14 1
    37   13   27 1
    38   14   19 ar
    39   14   15 ar
    40   15   16 ar
    41   16   17 ar
    42   16   53 1
    43   17   18 ar
    44   17   54 1
    45   18   19 ar
    46   18   20 1
    47   19   55 1
    48   20   21 1
    49   21   22 1
    50   21   56 1
    51   21   57 1
    52   22   23 1
    53   22   58 1
    54   22   59 1
    55   23   24 1
    56   23   60 1
    57   23   61 1
    58   24   25 2
    59   24   26 1
    60   27   28 1
    61   27   62 1
    62   27   63 1
    63   28   29 2
    64   28   30 am
    65   30   64 1
    66   30   65 1
    67   31   66 1
    68   31   67 1
    69   31   68 1
@<TRIPOS>MOLECULE
CHEMBL359304
   59    61     0     0     0
SMALL
USER_CHARGES

@<TRIPOS>ATOM
      1 C1         -0.0187    1.5258    0.0104 C.3       1 <0>        -0.1487
      2 C2          0.0021   -0.0041    0.0020 C.3       1 <0>        -0.0666
      3 C3          0.7074   -0.4901   -1.2379 C.2       1 <0>         0.1101
      4 C4          0.1119   -0.7431   -2.4141 C.2       1 <0>        -0.1638
      5 C5          1.1581   -1.1897   -3.3372 C.ar      1 <0>        -0.0512
      6 C6          1.1638   -1.5898   -4.6753 C.ar      1 <0>        -0.1709
      7 C7          2.3522   -1.9625   -5.2706 C.ar      1 <0>         0.1158
      8 C8          3.5392   -1.9406   -4.5426 C.ar      1 <0>        -0.0889
      9 C9          3.5453   -1.5478   -3.2230 C.ar      1 <0>        -0.0952
     10 C10         2.3584   -1.1681   -2.6049 C.ar      1 <0>         0.0738
     11 N1          2.0503   -0.7331   -1.3331 N.pl3     1 <0>        -0.4711
     12 C11         3.0164   -0.5599   -0.2455 C.3       1 <0>         0.1519
     13 C12         3.1330   -1.8453    0.5324 C.ar      1 <0>        -0.1112
     14 C13         2.3010   -2.0781    1.6115 C.ar      1 <0>        -0.1046
     15 C14         2.4079   -3.2572    2.3250 C.ar      1 <0>        -0.1215
     16 C15         3.3465   -4.2038    1.9591 C.ar      1 <0>        -0.1131
     17 C16         4.1778   -3.9715    0.8794 C.ar      1 <0>        -0.1185
     18 C17         4.0680   -2.7942    0.1633 C.ar      1 <0>        -0.0966
     19 C18         4.8290   -2.3510   -5.2052 C.3       1 <0>        -0.1038
     20 O1          2.3638   -2.3531   -6.5732 O.3       1 <0>        -0.3090
     21 C19         1.1116   -2.3530   -7.2617 C.3       1 <0>         0.0676
     22 C20         1.3226   -2.8180   -8.7040 C.3       1 <0>        -0.0906
     23 C21        -0.0181   -2.8179   -9.4412 C.3       1 <0>        -0.7241
     24 P1          0.2333   -3.3719  -11.1596 P.3       1 <0>         2.2574
     25 O2          1.3070   -2.4887  -11.8336 O.2       1 <0>        -1.0943
     26 O3          0.7015   -4.8443  -11.1628 O.3       1 <0>        -1.0952
     27 O4         -1.1513   -3.2473  -11.9717 O.3       1 <0>        -0.9055
     28 C22        -1.3551   -0.5960   -2.7258 C.3       1 <0>        -0.0634
     29 C23        -1.6241    0.7983   -3.2304 C.2       1 <0>         0.5135
     30 O5         -0.7142    1.5942   -3.3274 O.2       1 <0>        -0.5256
     31 N2         -2.8760    1.1608   -3.5739 N.am      1 <0>        -0.8629
     32 H1          1.0039    1.9031    0.0027 H         1 <0>         0.0533
     33 H2         -0.5459    1.8868   -0.8726 H         1 <0>         0.0676
     34 H3         -0.5289    1.8773    0.9072 H         1 <0>         0.0584
     35 H4          0.5293   -0.3651    0.8851 H         1 <0>         0.0728
     36 H5         -1.0205   -0.3814    0.0098 H         1 <0>         0.0846
     37 H6          0.2438   -1.6080   -5.2408 H         1 <0>         0.1214
     38 H7          4.4716   -1.5345   -2.6678 H         1 <0>         0.1212
     39 H8          3.9890   -0.2977   -0.6618 H         1 <0>         0.0946
     40 H9          2.6783    0.2365    0.4174 H         1 <0>         0.0945
     41 H10         1.5677   -1.3385    1.8974 H         1 <0>         0.1218
     42 H11         1.7584   -3.4387    3.1686 H         1 <0>         0.1229
     43 H12         3.4305   -5.1247    2.5170 H         1 <0>         0.1226
     44 H13         4.9114   -4.7109    0.5937 H         1 <0>         0.1245
     45 H14         4.7150   -2.6143   -0.6826 H         1 <0>         0.1224
     46 H15         5.3002   -1.4773   -5.6555 H         1 <0>         0.0686
     47 H16         5.4987   -2.7819   -4.4610 H         1 <0>         0.0608
     48 H17         4.6209   -3.0906   -5.9784 H         1 <0>         0.0756
     49 H18         0.4206   -3.0298   -6.7592 H         1 <0>         0.0529
     50 H19         0.6972   -1.3449   -7.2619 H         1 <0>         0.0529
     51 H20         2.0136   -2.1411   -9.2065 H         1 <0>         0.0844
     52 H21         1.7371   -3.8261   -8.7038 H         1 <0>         0.0816
     53 H22        -0.7091   -3.4947   -8.9386 H         1 <0>         0.0714
     54 H23        -0.4325   -1.8098   -9.4414 H         1 <0>         0.0698
     55 H24        -1.0917   -3.5257  -12.8958 H         1 <0>         0.4124
     56 H25        -1.6386   -1.3199   -3.4898 H         1 <0>         0.0977
     57 H26        -1.9382   -0.7742   -1.8222 H         1 <0>         0.0966
     58 H27        -3.6037    0.5242   -3.4964 H         1 <0>         0.3995
     59 H28        -3.0491    2.0582   -3.8987 H         1 <0>         0.3993
@<TRIPOS>BOND
     1    1    2 1
     2    1   32 1
     3    1   33 1
     4    1   34 1
     5    2    3 1
     6    2   35 1
     7    2   36 1
     8    3   11 1
     9    3    4 2
    10    4    5 1
    11    4   28 1
    12    5   10 ar
    13    5    6 ar
    14    6    7 ar
    15    6   37 1
    16    7    8 ar
    17    7   20 1
    18    8    9 ar
    19    8   19 1
    20    9   10 ar
    21    9   38 1
    22   10   11 1
    23   11   12 1
    24   12   13 1
    25   12   39 1
    26   12   40 1
    27   13   18 ar
    28   13   14 ar
    29   14   15 ar
    30   14   41 1
    31   15   16 ar
    32   15   42 1
    33   16   17 ar
    34   16   43 1
    35   17   18 ar
    36   17   44 1
    37   18   45 1
    38   19   46 1
    39   19   47 1
    40   19   48 1
    41   20   21 1
    42   21   22 1
    43   21   49 1
    44   21   50 1
    45   22   23 1
    46   22   51 1
    47   22   52 1
    48   23   24 1
    49   23   53 1
    50   23   54 1
    51   24   25 2
    52   24   26 1
    53   24   27 1
    54   27   55 1
    55   28   29 1
    56   28   56 1
    57   28   57 1
    58   29   30 2
    59   29   31 am
    60   31   58 1
    61   31   59 1
@<TRIPOS>MOLECULE
CHEMBL359304__1
   58    60     0     0     0
SMALL
USER_CHARGES

@<TRIPOS>ATOM
      1 C1         -0.0187    1.5258    0.0104 C.3       1 <0>        -0.1482
      2 C2          0.0021   -0.0041    0.0020 C.3       1 <0>        -0.0638
      3 C3          0.7309   -0.5033    1.2229 C.2       1 <0>         0.1027
      4 C4          2.0511   -0.7371    1.2903 C.2       1 <0>        -0.1595
      5 C5          2.3347   -1.2066    2.6487 C.ar      1 <0>        -0.0501
      6 C6          3.4970   -1.6021    3.3146 C.ar      1 <0>        -0.1738
      7 C7          3.4245   -2.0024    4.6337 C.ar      1 <0>         0.1225
      8 C8          2.2005   -2.0128    5.2979 C.ar      1 <0>        -0.0900
      9 C9          1.0485   -1.6250    4.6513 C.ar      1 <0>        -0.0988
     10 C10         1.1004   -1.2178    3.3223 C.ar      1 <0>         0.0684
     11 N1          0.1461   -0.7796    2.4283 N.pl3     1 <0>        -0.4729
     12 C11        -1.2813   -0.6345    2.7245 C.3       1 <0>         0.1534
     13 C12        -1.9931   -1.9252    2.4108 C.ar      1 <0>        -0.1086
     14 C13        -2.5084   -2.1407    1.1463 C.ar      1 <0>        -0.1052
     15 C14        -3.1614   -3.3246    0.8586 C.ar      1 <0>        -0.1228
     16 C15        -3.2987   -4.2932    1.8353 C.ar      1 <0>        -0.1151
     17 C16        -2.7827   -4.0781    3.0995 C.ar      1 <0>        -0.1185
     18 C17        -2.1260   -2.8959    3.3860 C.ar      1 <0>        -0.0958
     19 C18         2.1362   -2.4532    6.7377 C.3       1 <0>        -0.1034
     20 O1          4.5529   -2.3886    5.2872 O.3       1 <0>        -0.3088
     21 C19         5.7749   -2.3547    4.5473 C.3       1 <0>         0.0663
     22 C20         6.9258   -2.8198    5.4417 C.3       1 <0>        -0.0835
     23 C21         8.2342   -2.7835    4.6495 C.3       1 <0>        -0.7201
     24 P1          9.6055   -3.3376    5.7152 P.3       1 <0>         2.2105
     25 O2          9.6393   -2.4673    7.0175 O.2       1 <0>        -1.1798
     26 O3          9.3943   -4.8421    6.0980 O.3       1 <0>        -1.1809
     27 O4         10.9612   -3.1798    4.9462 O.3       1 <0>        -1.1852
     28 C22         3.0519   -0.5522    0.1789 C.3       1 <0>        -0.0647
     29 C23         3.6017    0.8502    0.2261 C.2       1 <0>         0.5145
     30 O5          3.2185    1.6233    1.0784 O.2       1 <0>        -0.5265
     31 N2          4.5191    1.2452   -0.6787 N.am      1 <0>        -0.8624
     32 H1          1.0039    1.9031    0.0027 H         1 <0>         0.0682
     33 H2         -0.5459    1.8868   -0.8726 H         1 <0>         0.0560
     34 H3         -0.5289    1.8773    0.9072 H         1 <0>         0.0525
     35 H4         -1.0205   -0.3814    0.0098 H         1 <0>         0.0706
     36 H5          0.5123   -0.3556   -0.8948 H         1 <0>         0.0833
     37 H6          4.4467   -1.5952    2.8004 H         1 <0>         0.1237
     38 H7          0.1045   -1.6369    5.1760 H         1 <0>         0.1182
     39 H8         -1.4108   -0.3953    3.7800 H         1 <0>         0.0932
     40 H9         -1.6988    0.1678    2.1162 H         1 <0>         0.0923
     41 H10        -2.4010   -1.3840    0.3833 H         1 <0>         0.1215
     42 H11        -3.5645   -3.4927   -0.1291 H         1 <0>         0.1215
     43 H12        -3.8095   -5.2179    1.6107 H         1 <0>         0.1213
     44 H13        -2.8903   -4.8347    3.8626 H         1 <0>         0.1240
     45 H14        -1.7196   -2.7294    4.3727 H         1 <0>         0.1232
     46 H15         2.2771   -1.5901    7.3883 H         1 <0>         0.0678
     47 H16         1.1637   -2.9034    6.9369 H         1 <0>         0.0582
     48 H17         2.9213   -3.1847    6.9293 H         1 <0>         0.0777
     49 H18         5.6955   -3.0157    3.6842 H         1 <0>         0.0491
     50 H19         5.9665   -1.3365    4.2087 H         1 <0>         0.0493
     51 H20         7.0051   -2.1588    6.3048 H         1 <0>         0.0740
     52 H21         6.7342   -3.8380    5.7803 H         1 <0>         0.0704
     53 H22         8.1548   -3.4445    3.7864 H         1 <0>         0.0455
     54 H23         8.4258   -1.7653    4.3109 H         1 <0>         0.0457
     55 H24         3.8665   -1.2661    0.3009 H         1 <0>         0.0999
     56 H25         2.5635   -0.7188   -0.7812 H         1 <0>         0.0951
     57 H26         4.8255    0.6268   -1.3604 H         1 <0>         0.3995
     58 H27         4.8729    2.1478   -0.6483 H         1 <0>         0.3987
@<TRIPOS>BOND
     1    1    2 1
     2    1   32 1
     3    1   33 1
     4    1   34 1
     5    2    3 1
     6    2   35 1
     7    2   36 1
     8    3   11 1
     9    3    4 2
    10    4    5 1
    11    4   28 1
    12    5   10 ar
    13    5    6 ar
    14    6    7 ar
    15    6   37 1
    16    7    8 ar
    17    7   20 1
    18    8    9 ar
    19    8   19 1
    20    9   10 ar
    21    9   38 1
    22   10   11 1
    23   11   12 1
    24   12   13 1
    25   12   39 1
    26   12   40 1
    27   13   18 ar
    28   13   14 ar
    29   14   15 ar
    30   14   41 1
    31   15   16 ar
    32   15   42 1
    33   16   17 ar
    34   16   43 1
    35   17   18 ar
    36   17   44 1
    37   18   45 1
    38   19   46 1
    39   19   47 1
    40   19   48 1
    41   20   21 1
    42   21   22 1
    43   21   49 1
    44   21   50 1
    45   22   23 1
    46   22   51 1
    47   22   52 1
    48   23   24 1
    49   23   53 1
    50   23   54 1
    51   24   25 2
    52   24   26 1
    53   24   27 1
    54   28   29 1
    55   28   55 1
    56   28   56 1
    57   29   30 2
    58   29   31 am
    59   31   57 1
    60   31   58 1
@<TRIPOS>MOLECULE
CHEMBL514841
   51    54     0     0     0
SMALL
USER_CHARGES

@<TRIPOS>ATOM
      1 C1         -0.0390    1.0329    0.0314 C.3       1 <0>        -0.1518
      2 C2         -0.1536   -0.4491    0.3939 C.3       1 <0>        -0.0721
      3 C3          0.3660   -0.6660    1.7918 C.2       1 <0>         0.1257
      4 C4          1.6770   -0.9561    2.1219 C.2       1 <0>        -0.2165
      5 C5          1.7098   -1.0809    3.5917 C.ar      1 <0>        -0.0808
      6 C6          2.7335   -1.3615    4.5162 C.ar      1 <0>         0.1885
      7 C7          2.4683   -1.4158    5.8509 C.ar      1 <0>        -0.2398
      8 C8          1.1602   -1.1911    6.3225 C.ar      1 <0>         0.0054
      9 C9          0.8707   -1.2434    7.6963 C.ar      1 <0>        -0.1103
     10 C10        -0.4021   -1.0223    8.1276 C.ar      1 <0>        -0.1076
     11 C11        -1.4255   -0.7444    7.2253 C.ar      1 <0>        -0.1246
     12 C12        -1.1804   -0.6858    5.8861 C.ar      1 <0>        -0.1242
     13 C13         0.1186   -0.9078    5.4064 C.ar      1 <0>        -0.0508
     14 C14         0.4045   -0.8532    4.0227 C.ar      1 <0>         0.1196
     15 N1         -0.3715   -0.6021    2.9146 N.pl3     1 <0>        -0.4268
     16 C15        -1.8064   -0.3092    2.9524 C.3       1 <0>         0.1290
     17 C16        -2.5848   -1.5907    2.8012 C.ar      1 <0>        -0.1214
     18 C17        -3.0558   -1.9707    1.5583 C.ar      1 <0>        -0.1008
     19 C18        -3.7698   -3.1462    1.4196 C.ar      1 <0>        -0.1188
     20 C19        -4.0125   -3.9419    2.5236 C.ar      1 <0>        -0.1061
     21 C20        -3.5407   -3.5624    3.7663 C.ar      1 <0>        -0.1168
     22 C21        -2.8230   -2.3890    3.9043 C.ar      1 <0>        -0.1070
     23 O1          3.9986   -1.5808    4.0726 O.3       1 <0>        -0.3149
     24 C22         4.9929   -1.8605    5.0600 C.3       1 <0>         0.0264
     25 C23         2.8032   -1.1091    1.2005 C.2       1 <0>         0.4439
     26 O2          3.4429   -0.1350    0.8558 O.2       1 <0>        -0.4082
     27 C24         3.1662   -2.4608    0.6842 C.2       1 <0>         0.4872
     28 O3          2.5913   -3.4447    1.1023 O.2       1 <0>        -0.4962
     29 N2          4.1324   -2.5896   -0.2465 N.am      1 <0>        -0.8319
     30 H1          1.0057    1.3397    0.0824 H         1 <0>         0.0664
     31 H2         -0.4147    1.1898   -0.9797 H         1 <0>         0.0693
     32 H3         -0.6262    1.6251    0.7332 H         1 <0>         0.0578
     33 H4         -1.1983   -0.7559    0.3429 H         1 <0>         0.0850
     34 H5          0.4337   -1.0413   -0.3080 H         1 <0>         0.0880
     35 H6          3.2630   -1.6321    6.5496 H         1 <0>         0.1366
     36 H7          1.6544   -1.4586    8.4076 H         1 <0>         0.1284
     37 H8         -0.6208   -1.0633    9.1844 H         1 <0>         0.1241
     38 H9         -2.4269   -0.5733    7.5916 H         1 <0>         0.1236
     39 H10        -1.9833   -0.4697    5.1969 H         1 <0>         0.1309
     40 H11        -2.0569    0.1578    3.9049 H         1 <0>         0.1123
     41 H12        -2.0605    0.3686    2.1375 H         1 <0>         0.1062
     42 H13        -2.8662   -1.3490    0.6958 H         1 <0>         0.1241
     43 H14        -4.1384   -3.4427    0.4487 H         1 <0>         0.1263
     44 H15        -4.5710   -4.8600    2.4153 H         1 <0>         0.1254
     45 H16        -3.7306   -4.1839    4.6289 H         1 <0>         0.1259
     46 H17        -2.4512   -2.0944    4.8745 H         1 <0>         0.1331
     47 H18         5.9555   -2.0153    4.5726 H         1 <0>         0.1007
     48 H19         5.0662   -1.0200    5.7502 H         1 <0>         0.0592
     49 H20         4.7156   -2.7595    5.6104 H         1 <0>         0.0591
     50 H21         4.5918   -1.8033   -0.5806 H         1 <0>         0.4102
     51 H22         4.3684   -3.4685   -0.5823 H         1 <0>         0.4090
@<TRIPOS>BOND
     1    1    2 1
     2    1   30 1
     3    1   31 1
     4    1   32 1
     5    2    3 1
     6    2   33 1
     7    2   34 1
     8    3   15 1
     9    3    4 2
    10    4    5 1
    11    4   25 1
    12    5   14 ar
    13    5    6 ar
    14    6    7 ar
    15    6   23 1
    16    7    8 ar
    17    7   35 1
    18    8   13 ar
    19    8    9 ar
    20    9   10 ar
    21    9   36 1
    22   10   11 ar
    23   10   37 1
    24   11   12 ar
    25   11   38 1
    26   12   13 ar
    27   12   39 1
    28   13   14 ar
    29   14   15 1
    30   15   16 1
    31   16   17 1
    32   16   40 1
    33   16   41 1
    34   17   22 ar
    35   17   18 ar
    36   18   19 ar
    37   18   42 1
    38   19   20 ar
    39   19   43 1
    40   20   21 ar
    41   20   44 1
    42   21   22 ar
    43   21   45 1
    44   22   46 1
    45   23   24 1
    46   24   47 1
    47   24   48 1
    48   24   49 1
    49   25   26 2
    50   25   27 1
    51   27   28 2
    52   27   29 am
    53   29   50 1
    54   29   51 1
@<TRIPOS>MOLECULE
CHEMBL433767
   55    58     0     0     0
SMALL
USER_CHARGES

@<TRIPOS>ATOM
      1 C1          0.1320    1.1227   -0.2972 C.3       1 <0>        -0.1076
      2 C2          0.0729   -0.3645   -0.0609 C.2       1 <0>         0.1400
      3 C3         -0.0480   -1.3246   -1.0482 C.2       1 <0>        -0.2308
      4 C4         -0.0636   -2.6263   -0.3535 C.ar      1 <0>        -0.0775
      5 C5         -0.1625   -3.9520   -0.7791 C.ar      1 <0>         0.1733
      6 C6         -0.1465   -4.9700    0.1556 C.ar      1 <0>        -0.2159
      7 C7         -0.0332   -4.6822    1.5106 C.ar      1 <0>        -0.0386
      8 C8          0.0648   -3.3756    1.9401 C.ar      1 <0>        -0.1358
      9 C9          0.0507   -2.3346    1.0122 C.ar      1 <0>         0.1483
     10 N1          0.1356   -0.9623    1.1430 N.pl3     1 <0>        -0.4527
     11 C10         0.2723   -0.2543    2.4182 C.3       1 <0>         0.1437
     12 C11         1.7261    0.0541    2.6683 C.ar      1 <0>        -0.1517
     13 C12         2.5120   -0.8410    3.3695 C.ar      1 <0>        -0.0745
     14 C13         3.8455   -0.5584    3.5989 C.ar      1 <0>        -0.1282
     15 C14         4.3947    0.6196    3.1275 C.ar      1 <0>        -0.0785
     16 C15         3.6111    1.5157    2.4259 C.ar      1 <0>        -0.1529
     17 C16         2.2764    1.2313    2.1909 C.ar      1 <0>         0.1158
     18 F1          1.5104    2.1045    1.5009 F         1 <0>        -0.1318
     19 C17         0.1758   -3.3378    3.4496 C.3       1 <0>        -0.0783
     20 C18        -0.3032   -4.7260    3.9243 C.3       1 <0>        -0.1184
     21 C19         0.0058   -5.6165    2.7024 C.3       1 <0>        -0.0796
     22 O1         -0.2740   -4.2395   -2.1023 O.3       1 <0>        -0.2911
     23 C20        -0.3707   -5.6195   -2.4605 C.3       1 <0>         0.0687
     24 C21        -0.4866   -5.7430   -3.9579 C.2       1 <0>         0.4611
     25 O2         -0.4864   -4.7509   -4.6477 O.2       1 <0>        -0.4781
     26 O3         -0.5900   -6.9550   -4.5254 O.3       1 <0>        -0.3495
     27 C22        -0.6964   -6.9974   -5.9498 C.3       1 <0>         0.0350
     28 C23        -0.1419   -1.0964   -2.4892 C.2       1 <0>         0.4445
     29 O4         -1.2208   -0.8638   -2.9987 O.2       1 <0>        -0.4092
     30 C24         1.0860   -1.1489   -3.3341 C.2       1 <0>         0.4915
     31 O5          2.1478   -1.4719   -2.8423 O.2       1 <0>        -0.5019
     32 N2          1.0168   -0.8376   -4.6436 N.am      1 <0>        -0.8288
     33 H1          1.1724    1.4356   -0.3850 H         1 <0>         0.0925
     34 H2         -0.3995    1.3658   -1.2173 H         1 <0>         0.0814
     35 H3         -0.3343    1.6423    0.5399 H         1 <0>         0.0843
     36 H4         -0.2230   -5.9971   -0.1694 H         1 <0>         0.1321
     37 H5         -0.2950    0.6757    2.3801 H         1 <0>         0.1042
     38 H6         -0.1101   -0.8804    3.2243 H         1 <0>         0.1113
     39 H7          2.0840   -1.7613    3.7385 H         1 <0>         0.1366
     40 H8          4.4587   -1.2582    4.1472 H         1 <0>         0.1338
     41 H9          5.4366    0.8397    3.3080 H         1 <0>         0.1364
     42 H10         4.0403    2.4360    2.0580 H         1 <0>         0.1393
     43 H11         1.2108   -3.1721    3.7487 H         1 <0>         0.0779
     44 H12        -0.4661   -2.5566    3.8567 H         1 <0>         0.0698
     45 H13         0.2627   -5.0542    4.7962 H         1 <0>         0.0792
     46 H14        -1.3724   -4.7157    4.1360 H         1 <0>         0.0750
     47 H15        -0.7520   -6.3931    2.5991 H         1 <0>         0.0787
     48 H16         0.9952   -6.0632    2.8005 H         1 <0>         0.0839
     49 H17         0.5208   -6.1465   -2.1204 H         1 <0>         0.1102
     50 H18        -1.2521   -6.0559   -1.9906 H         1 <0>         0.1103
     51 H19        -1.5850   -6.4500   -6.2643 H         1 <0>         0.0638
     52 H20         0.1879   -6.5405   -6.3940 H         1 <0>         0.0634
     53 H21        -0.7734   -8.0340   -6.2777 H         1 <0>         0.1075
     54 H22         0.1683   -0.5794   -5.0365 H         1 <0>         0.4100
     55 H23         1.8154   -0.8717   -5.1931 H         1 <0>         0.4077
@<TRIPOS>BOND
     1    1    2 1
     2    1   33 1
     3    1   34 1
     4    1   35 1
     5    2   10 1
     6    2    3 2
     7    3    4 1
     8    3   28 1
     9    4    9 ar
    10    4    5 ar
    11    5    6 ar
    12    5   22 1
    13    6    7 ar
    14    6   36 1
    15    7   21 1
    16    7    8 ar
    17    8    9 ar
    18    8   19 1
    19    9   10 1
    20   10   11 1
    21   11   12 1
    22   11   37 1
    23   11   38 1
    24   12   17 ar
    25   12   13 ar
    26   13   14 ar
    27   13   39 1
    28   14   15 ar
    29   14   40 1
    30   15   16 ar
    31   15   41 1
    32   16   17 ar
    33   16   42 1
    34   17   18 1
    35   19   20 1
    36   19   43 1
    37   19   44 1
    38   20   21 1
    39   20   45 1
    40   20   46 1
    41   21   47 1
    42   21   48 1
    43   22   23 1
    44   23   24 1
    45   23   49 1
    46   23   50 1
    47   24   25 2
    48   24   26 1
    49   26   27 1
    50   27   51 1
    51   27   52 1
    52   27   53 1
    53   28   29 2
    54   28   30 1
    55   30   31 2
    56   30   32 am
    57   32   54 1
    58   32   55 1
@<TRIPOS>MOLECULE
CHEMBL425869
   54    57     0     0     0
SMALL
USER_CHARGES

@<TRIPOS>ATOM
      1 C1         -0.8038    1.1430   -0.0203 C.3       1 <0>        -0.1040
      2 C2         -0.3274   -0.2856    0.0374 C.2       1 <0>         0.1153
      3 C3         -0.2921   -1.1585   -1.0342 C.2       1 <0>        -0.2112
      4 C4          0.2419   -2.4294   -0.5083 C.ar      1 <0>        -0.0934
      5 C5          0.5160   -3.6761   -1.0728 C.ar      1 <0>         0.1887
      6 C6          1.0230   -4.6825   -0.2755 C.ar      1 <0>        -0.2500
      7 C7          1.2650   -4.4674    1.0802 C.ar      1 <0>        -0.0110
      8 C8          1.0037   -3.2420    1.6429 C.ar      1 <0>        -0.1387
      9 C9          0.4862   -2.2108    0.8523 C.ar      1 <0>         0.1337
     10 N1          0.1344   -0.9062    1.1387 N.pl3     1 <0>        -0.4520
     11 C10         0.2457   -0.2843    2.4605 C.3       1 <0>         0.1311
     12 C11        -1.1116   -0.2479    3.1144 C.ar      1 <0>        -0.1123
     13 C12        -1.8517    0.9196    3.1061 C.ar      1 <0>        -0.1055
     14 C13        -3.0967    0.9530    3.7059 C.ar      1 <0>        -0.1204
     15 C14        -3.6017   -0.1812    4.3136 C.ar      1 <0>        -0.1123
     16 C15        -2.8620   -1.3490    4.3211 C.ar      1 <0>        -0.1176
     17 C16        -1.6189   -1.3835    3.7176 C.ar      1 <0>        -0.1045
     18 C17         1.2601   -2.9444    3.0974 C.3       1 <0>        -0.0867
     19 C18         1.4022   -4.2386    3.8954 C.3       1 <0>        -0.1168
     20 C19         2.4266   -5.1325    3.1864 C.3       1 <0>        -0.1174
     21 C20         1.8114   -5.6238    1.8780 C.3       1 <0>        -0.0775
     22 O1          0.2856   -3.8971   -2.3935 O.3       1 <0>        -0.2768
     23 C21         0.5916   -5.1992   -2.8964 C.3       1 <0>        -0.0065
     24 C22         0.2738   -5.2566   -4.3684 C.2       1 <0>         0.5023
     25 O2         -0.1733   -4.2736   -4.9343 O.co2     1 <0>        -0.6686
     26 O3          0.4638   -6.2861   -4.9933 O.co2     1 <0>        -0.6887
     27 C23        -0.7016   -0.8791   -2.4096 C.2       1 <0>         0.4451
     28 O4         -1.8676   -0.9966   -2.7323 O.2       1 <0>        -0.4108
     29 C24         0.3113   -0.4498   -3.4166 C.2       1 <0>         0.4975
     30 O5          1.4880   -0.4208   -3.1197 O.2       1 <0>        -0.5070
     31 N2         -0.0798   -0.0941   -4.6564 N.am      1 <0>        -0.8258
     32 H1          0.0501    1.8052   -0.1627 H         1 <0>         0.0819
     33 H2         -1.4980    1.2612   -0.8523 H         1 <0>         0.0819
     34 H3         -1.3081    1.3957    0.9124 H         1 <0>         0.0793
     35 H4          1.2347   -5.6493   -0.7077 H         1 <0>         0.1293
     36 H5          0.9312   -0.8643    3.0784 H         1 <0>         0.1160
     37 H6          0.6247    0.7321    2.3531 H         1 <0>         0.0949
     38 H7         -1.4571    1.8057    2.6313 H         1 <0>         0.1258
     39 H8         -3.6746    1.8653    3.7000 H         1 <0>         0.1239
     40 H9         -4.5741   -0.1549    4.7828 H         1 <0>         0.1225
     41 H10        -3.2565   -2.2350    4.7962 H         1 <0>         0.1240
     42 H11        -1.0425   -2.2969    3.7202 H         1 <0>         0.1326
     43 H12         2.1779   -2.3635    3.1887 H         1 <0>         0.0674
     44 H13         0.4280   -2.3653    3.4976 H         1 <0>         0.0768
     45 H14         1.7482   -4.0121    4.9039 H         1 <0>         0.0638
     46 H15         0.4401   -4.7486    3.9425 H         1 <0>         0.0653
     47 H16         3.3298   -4.5600    2.9753 H         1 <0>         0.0653
     48 H17         2.6711   -5.9849    3.8201 H         1 <0>         0.0650
     49 H18         1.0031   -6.3205    2.1005 H         1 <0>         0.0761
     50 H19         2.5748   -6.1356    1.2920 H         1 <0>         0.0757
     51 H20         1.6508   -5.4075   -2.7450 H         1 <0>         0.0600
     52 H21        -0.0042   -5.9425   -2.3668 H         1 <0>         0.0596
     53 H22        -1.0200   -0.1173   -4.8937 H         1 <0>         0.4090
     54 H23         0.5790    0.1851   -5.3114 H         1 <0>         0.4055
@<TRIPOS>BOND
     1    1    2 1
     2    1   32 1
     3    1   33 1
     4    1   34 1
     5    2   10 1
     6    2    3 2
     7    3    4 1
     8    3   27 1
     9    4    9 ar
    10    4    5 ar
    11    5    6 ar
    12    5   22 1
    13    6    7 ar
    14    6   35 1
    15    7   21 1
    16    7    8 ar
    17    8    9 ar
    18    8   18 1
    19    9   10 1
    20   10   11 1
    21   11   12 1
    22   11   36 1
    23   11   37 1
    24   12   17 ar
    25   12   13 ar
    26   13   14 ar
    27   13   38 1
    28   14   15 ar
    29   14   39 1
    30   15   16 ar
    31   15   40 1
    32   16   17 ar
    33   16   41 1
    34   17   42 1
    35   18   19 1
    36   18   43 1
    37   18   44 1
    38   19   20 1
    39   19   45 1
    40   19   46 1
    41   20   21 1
    42   20   47 1
    43   20   48 1
    44   21   49 1
    45   21   50 1
    46   22   23 1
    47   23   24 1
    48   23   51 1
    49   23   52 1
    50   24   25 2
    51   24   26 1
    52   27   28 2
    53   27   29 1
    54   29   30 2
    55   29   31 am
    56   31   53 1
    57   31   54 1
@<TRIPOS>MOLECULE
CHEMBL85768
   57    59     0     0     0
SMALL
USER_CHARGES

@<TRIPOS>ATOM
      1 C1         -0.0167    1.3781    0.0096 C.ar      1 <0>        -0.1258
      2 C2          1.1709    2.0855    0.0021 C.ar      1 <0>        -0.1183
      3 C3          2.3773    1.4107   -0.0130 C.ar      1 <0>        -0.1183
      4 C4          2.3960    0.0285   -0.0201 C.ar      1 <0>        -0.0820
      5 C5          1.2084   -0.6789   -0.0117 C.ar      1 <0>        -0.1183
      6 C6          0.0021   -0.0041    0.0020 C.ar      1 <0>        -0.1183
      7 C7          3.7112   -0.7071   -0.0376 C.3       1 <0>        -0.0811
      8 C8          4.1714   -0.9633    1.3989 C.3       1 <0>        -0.1080
      9 C9          5.5066   -1.7102    1.3812 C.3       1 <0>        -0.1036
     10 C10         5.9667   -1.9663    2.8177 C.3       1 <0>        -0.1064
     11 S1          7.5498   -2.8518    2.7967 S.3       1 <0>        -0.1228
     12 C11         7.9397   -3.0684    4.5013 C.ar      1 <0>        -0.1198
     13 C12         7.0753   -2.5907    5.4782 C.ar      1 <0>        -0.0919
     14 C13         7.3819   -2.7609    6.8139 C.ar      1 <0>        -0.1279
     15 C14         8.5525   -3.4088    7.1802 C.ar      1 <0>         0.1269
     16 C15         9.4163   -3.8863    6.2055 C.ar      1 <0>        -0.1903
     17 C16         9.1089   -3.7222    4.8693 C.ar      1 <0>        -0.0568
     18 O1          8.8537   -3.5755    8.4959 O.3       1 <0>        -0.2935
     19 C17        10.0751   -4.2515    8.8012 C.3       1 <0>         0.0146
     20 C18        10.2389   -4.3422   10.2965 C.2       1 <0>         0.3532
     21 O2          9.3965   -3.8761   11.0256 O.2       1 <0>        -0.4005
     22 C19        11.4538   -5.0146   10.8821 C.3       1 <0>         0.0182
     23 O3         11.3797   -4.9737   12.3086 O.3       1 <0>        -0.3000
     24 C20        12.4036   -5.5404   12.9950 C.ar      1 <0>         0.1079
     25 C21        13.4631   -6.1201   12.3059 C.ar      1 <0>        -0.2247
     26 C22        14.5037   -6.6966   12.9980 C.ar      1 <0>        -0.0480
     27 C23        14.4947   -6.6982   14.3970 C.ar      1 <0>        -0.1641
     28 C24        13.4267   -6.1133   15.0860 C.ar      1 <0>        -0.0470
     29 C25        12.3930   -5.5346   14.3855 C.ar      1 <0>        -0.1615
     30 C26        15.6054   -7.3141   15.1419 C.2       1 <0>         0.5213
     31 O4         16.5381   -7.8253   14.5375 O.co2     1 <0>        -0.6898
     32 O5         15.5956   -7.3144   16.3652 O.co2     1 <0>        -0.6882
     33 H1         -0.9591    1.9053    0.0259 H         1 <0>         0.1205
     34 H2          1.1563    3.1654    0.0076 H         1 <0>         0.1213
     35 H3          3.3051    1.9634   -0.0196 H         1 <0>         0.1211
     36 H4          1.2231   -1.7588   -0.0176 H         1 <0>         0.1211
     37 H5         -0.9258   -0.5567    0.0082 H         1 <0>         0.1213
     38 H6          3.5884   -1.6586   -0.5549 H         1 <0>         0.0742
     39 H7          4.4573   -0.1052   -0.5563 H         1 <0>         0.0742
     40 H8          4.2941   -0.0118    1.9163 H         1 <0>         0.0671
     41 H9          3.4252   -1.5652    1.9176 H         1 <0>         0.0671
     42 H10         5.3838   -2.6617    0.8639 H         1 <0>         0.0750
     43 H11         6.2527   -1.1082    0.8625 H         1 <0>         0.0750
     44 H12         6.0895   -1.0148    3.3350 H         1 <0>         0.0877
     45 H13         5.2206   -2.5682    3.3364 H         1 <0>         0.0877
     46 H14         6.1640   -2.0859    5.1933 H         1 <0>         0.1298
     47 H15         6.7102   -2.3893    7.5735 H         1 <0>         0.1367
     48 H16        10.3276   -4.3902    6.4918 H         1 <0>         0.1364
     49 H17         9.7795   -4.0979    4.1106 H         1 <0>         0.1325
     50 H18        10.0508   -5.2552    8.3768 H         1 <0>         0.1031
     51 H19        10.9127   -3.6978    8.3769 H         1 <0>         0.1031
     52 H20        11.4905   -6.0521   10.5498 H         1 <0>         0.0999
     53 H21        12.3523   -4.4947   10.5499 H         1 <0>         0.0999
     54 H22        13.4693   -6.1184   11.2259 H         1 <0>         0.1197
     55 H23        15.3259   -7.1473   12.4619 H         1 <0>         0.1303
     56 H24        13.4156   -6.1122   16.1660 H         1 <0>         0.1354
     57 H25        11.5702   -5.0793   14.9165 H         1 <0>         0.1245
@<TRIPOS>BOND
     1    1    6 ar
     2    1    2 ar
     3    1   33 1
     4    2    3 ar
     5    2   34 1
     6    3    4 ar
     7    3   35 1
     8    4    5 ar
     9    4    7 1
    10    5    6 ar
    11    5   36 1
    12    6   37 1
    13    7    8 1
    14    7   38 1
    15    7   39 1
    16    8    9 1
    17    8   40 1
    18    8   41 1
    19    9   10 1
    20    9   42 1
    21    9   43 1
    22   10   11 1
    23   10   44 1
    24   10   45 1
    25   11   12 1
    26   12   17 ar
    27   12   13 ar
    28   13   14 ar
    29   13   46 1
    30   14   15 ar
    31   14   47 1
    32   15   16 ar
    33   15   18 1
    34   16   17 ar
    35   16   48 1
    36   17   49 1
    37   18   19 1
    38   19   20 1
    39   19   50 1
    40   19   51 1
    41   20   21 2
    42   20   22 1
    43   22   23 1
    44   22   52 1
    45   22   53 1
    46   23   24 1
    47   24   29 ar
    48   24   25 ar
    49   25   26 ar
    50   25   54 1
    51   26   27 ar
    52   26   55 1
    53   27   28 ar
    54   27   30 1
    55   28   29 ar
    56   28   56 1
    57   29   57 1
    58   30   31 2
    59   30   32 1
@<TRIPOS>MOLECULE
CHEMBL123608
   39    41     0     0     0
SMALL
USER_CHARGES

@<TRIPOS>ATOM
      1 C1         -0.0187    1.5258    0.0104 C.3       1 <0>        -0.1546
      2 C2          0.0021   -0.0041    0.0020 C.3       1 <0>        -0.1242
      3 C3         -1.4333   -0.5336    0.0129 C.3       1 <0>        -0.1137
      4 C4         -1.4126   -2.0635    0.0045 C.3       1 <0>        -0.0391
      5 C5         -2.8264   -2.5851    0.0152 C.2       1 <0>         0.2671
      6 N1         -3.7420   -2.2745    0.8949 N.2       1 <0>        -0.4744
      7 C6         -4.8787   -2.9143    0.6059 C.2       1 <0>         0.1198
      8 C7         -4.6618   -3.6656   -0.5152 C.2       1 <0>         0.0251
      9 N2         -3.3502   -3.4421   -0.8845 N.pl3     1 <0>        -0.5469
     10 C8         -5.6313   -4.5330   -1.1941 C.2       1 <0>         0.1433
     11 N3         -6.8617   -4.7212   -0.8374 N.2       1 <0>        -0.2525
     12 O1         -7.5509   -5.6092   -1.6950 O.3       1 <0>        -0.1768
     13 C9         -6.5641   -6.3417   -2.4491 C.3       1 <0>         0.0899
     14 C10        -5.3669   -5.3588   -2.4387 C.3       1 <0>        -0.1407
     15 C11        -7.0386   -6.5925   -3.8573 C.ar      1 <0>        -0.0955
     16 C12        -7.7408   -5.6133   -4.5347 C.ar      1 <0>        -0.0946
     17 C13        -8.1761   -5.8434   -5.8264 C.ar      1 <0>        -0.1190
     18 C14        -7.9087   -7.0525   -6.4409 C.ar      1 <0>        -0.1108
     19 C15        -7.2057   -8.0313   -5.7637 C.ar      1 <0>        -0.1192
     20 C16        -6.7667   -7.7997   -4.4736 C.ar      1 <0>        -0.1030
     21 Cl1        -6.3658   -2.8102    1.4955 Cl        1 <0>         0.0229
     22 H1          1.0039    1.9031    0.0027 H         1 <0>         0.0555
     23 H2         -0.5459    1.8868   -0.8726 H         1 <0>         0.0537
     24 H3         -0.5289    1.8773    0.9072 H         1 <0>         0.0566
     25 H4          0.5123   -0.3556   -0.8948 H         1 <0>         0.0618
     26 H5          0.5293   -0.3651    0.8851 H         1 <0>         0.0656
     27 H6         -1.9435   -0.1821    0.9097 H         1 <0>         0.0805
     28 H7         -1.9605   -0.1726   -0.8702 H         1 <0>         0.0644
     29 H8         -0.9024   -2.4150   -0.8923 H         1 <0>         0.0860
     30 H9         -0.8854   -2.4246    0.8875 H         1 <0>         0.1015
     31 H10        -6.3096   -7.2780   -1.9523 H         1 <0>         0.1007
     32 H11        -5.3720   -4.7297   -3.3288 H         1 <0>         0.1088
     33 H12        -4.4245   -5.8996   -2.3512 H         1 <0>         0.1040
     34 H13        -7.9497   -4.6687   -4.0547 H         1 <0>         0.1247
     35 H14        -8.7253   -5.0786   -6.3554 H         1 <0>         0.1262
     36 H15        -8.2494   -7.2325   -7.4498 H         1 <0>         0.1256
     37 H16        -6.9971   -8.9761   -6.2437 H         1 <0>         0.1270
     38 H17        -6.2142   -8.5630   -3.9459 H         1 <0>         0.1252
     39 H18        -2.8916   -3.8298   -1.6463 H         1 <0>         0.4292
@<TRIPOS>BOND
     1    1    2 1
     2    1   22 1
     3    1   23 1
     4    1   24 1
     5    2    3 1
     6    2   25 1
     7    2   26 1
     8    3    4 1
     9    3   27 1
    10    3   28 1
    11    4    5 1
    12    4   29 1
    13    4   30 1
    14    5    9 1
    15    5    6 2
    16    6    7 1
    17    7    8 2
    18    7   21 1
    19    8    9 1
    20    8   10 1
    21    9   39 1
    22   10   14 1
    23   10   11 2
    24   11   12 1
    25   12   13 1
    26   13   14 1
    27   13   15 1
    28   13   31 1
    29   14   32 1
    30   14   33 1
    31   15   20 ar
    32   15   16 ar
    33   16   17 ar
    34   16   34 1
    35   17   18 ar
    36   17   35 1
    37   18   19 ar
    38   18   36 1
    39   19   20 ar
    40   19   37 1
    41   20   38 1
@<TRIPOS>MOLECULE
CHEMBL123608__1
   39    41     0     0     0
SMALL
USER_CHARGES

@<TRIPOS>ATOM
      1 C1         -0.0187    1.5258    0.0104 C.3       1 <0>        -0.1546
      2 C2          0.0021   -0.0041    0.0020 C.3       1 <0>        -0.1242
      3 C3         -1.4333   -0.5336    0.0129 C.3       1 <0>        -0.1136
      4 C4         -1.4126   -2.0635    0.0045 C.3       1 <0>        -0.0391
      5 C5         -2.8264   -2.5851    0.0152 C.2       1 <0>         0.2672
      6 N1         -3.7420   -2.2745    0.8949 N.2       1 <0>        -0.4744
      7 C6         -4.8787   -2.9143    0.6059 C.2       1 <0>         0.1199
      8 C7         -4.6618   -3.6656   -0.5152 C.2       1 <0>         0.0250
      9 N2         -3.3502   -3.4421   -0.8845 N.pl3     1 <0>        -0.5469
     10 C8         -5.6313   -4.5330   -1.1941 C.2       1 <0>         0.1440
     11 N3         -6.8617   -4.7212   -0.8374 N.2       1 <0>        -0.2526
     12 O1         -7.5468   -5.6204   -1.6866 O.3       1 <0>        -0.1768
     13 C9         -6.7922   -5.7253   -2.9109 C.3       1 <0>         0.0900
     14 C10        -5.3669   -5.3588   -2.4387 C.3       1 <0>        -0.1408
     15 C11        -6.8397   -7.1300   -3.4547 C.ar      1 <0>        -0.0956
     16 C12        -6.8963   -8.2052   -2.5878 C.ar      1 <0>        -0.0944
     17 C13        -6.9398   -9.4937   -3.0866 C.ar      1 <0>        -0.1190
     18 C14        -6.9272   -9.7069   -4.4524 C.ar      1 <0>        -0.1112
     19 C15        -6.8715   -8.6316   -5.3193 C.ar      1 <0>        -0.1193
     20 C16        -6.8323   -7.3429   -4.8205 C.ar      1 <0>        -0.1038
     21 Cl1        -6.3658   -2.8102    1.4955 Cl        1 <0>         0.0230
     22 H1          1.0039    1.9031    0.0027 H         1 <0>         0.0555
     23 H2         -0.5459    1.8868   -0.8726 H         1 <0>         0.0537
     24 H3         -0.5289    1.8773    0.9072 H         1 <0>         0.0566
     25 H4          0.5123   -0.3556   -0.8948 H         1 <0>         0.0618
     26 H5          0.5293   -0.3651    0.8851 H         1 <0>         0.0657
     27 H6         -1.9435   -0.1821    0.9097 H         1 <0>         0.0805
     28 H7         -1.9605   -0.1726   -0.8702 H         1 <0>         0.0643
     29 H8         -0.9024   -2.4150   -0.8923 H         1 <0>         0.0860
     30 H9         -0.8854   -2.4246    0.8875 H         1 <0>         0.1015
     31 H10        -7.1492   -5.0097   -3.6515 H         1 <0>         0.0999
     32 H11        -4.8486   -4.7668   -3.1930 H         1 <0>         0.1042
     33 H12        -4.8002   -6.2571   -2.1938 H         1 <0>         0.1085
     34 H13        -6.9062   -8.0387   -1.5208 H         1 <0>         0.1262
     35 H14        -6.9833  -10.3338   -2.4093 H         1 <0>         0.1263
     36 H15        -6.9605  -10.7135   -4.8421 H         1 <0>         0.1254
     37 H16        -6.8613   -8.7981   -6.3863 H         1 <0>         0.1269
     38 H17        -6.7925   -6.5027   -5.4979 H         1 <0>         0.1249
     39 H18        -2.8916   -3.8298   -1.6463 H         1 <0>         0.4292
@<TRIPOS>BOND
     1    1    2 1
     2    1   22 1
     3    1   23 1
     4    1   24 1
     5    2    3 1
     6    2   25 1
     7    2   26 1
     8    3    4 1
     9    3   27 1
    10    3   28 1
    11    4    5 1
    12    4   29 1
    13    4   30 1
    14    5    9 1
    15    5    6 2
    16    6    7 1
    17    7    8 2
    18    7   21 1
    19    8    9 1
    20    8   10 1
    21    9   39 1
    22   10   14 1
    23   10   11 2
    24   11   12 1
    25   12   13 1
    26   13   14 1
    27   13   15 1
    28   13   31 1
    29   14   32 1
    30   14   33 1
    31   15   20 ar
    32   15   16 ar
    33   16   17 ar
    34   16   34 1
    35   17   18 ar
    36   17   35 1
    37   18   19 ar
    38   18   36 1
    39   19   20 ar
    40   19   37 1
    41   20   38 1
@<TRIPOS>MOLECULE
CHEMBL357979
   54    57     0     0     0
SMALL
USER_CHARGES

@<TRIPOS>ATOM
      1 C1         -0.1835    2.6641    0.4799 C.3       1 <0>        -0.0975
      2 C2         -0.1304    1.2332    0.0101 C.2       1 <0>         0.1161
      3 C3         -0.2565    0.8200   -1.3030 C.2       1 <0>        -0.2104
      4 C4         -0.1405   -0.6509   -1.2828 C.ar      1 <0>        -0.0953
      5 C5          0.0484   -1.0026    0.0619 C.ar      1 <0>         0.1318
      6 N1          0.0529    0.1622    0.8037 N.pl3     1 <0>        -0.4606
      7 C6          0.2294    0.2231    2.2567 C.3       1 <0>         0.1514
      8 C7         -1.1150    0.1251    2.9306 C.ar      1 <0>        -0.0968
      9 C8         -2.2478   -0.1208    2.1812 C.ar      1 <0>        -0.0978
     10 C9         -3.4822   -0.2111    2.7983 C.ar      1 <0>        -0.1104
     11 C10        -3.5890   -0.0562    4.1689 C.ar      1 <0>        -0.1160
     12 C11        -2.4630    0.1895    4.9279 C.ar      1 <0>        -0.1052
     13 C12        -1.2160    0.2767    4.3118 C.ar      1 <0>        -0.0427
     14 C13        -0.0009    0.5356    5.1234 C.ar      1 <0>        -0.0474
     15 C14         1.0872   -0.3317    5.0495 C.ar      1 <0>        -0.1107
     16 C15         2.2150   -0.0858    5.8061 C.ar      1 <0>        -0.1156
     17 C16         2.2663    1.0191    6.6367 C.ar      1 <0>        -0.1182
     18 C17         1.1889    1.8830    6.7142 C.ar      1 <0>        -0.1179
     19 C18         0.0583    1.6500    5.9577 C.ar      1 <0>        -0.1049
     20 C19         0.1933   -2.3441    0.4019 C.ar      1 <0>        -0.1793
     21 C20         0.1512   -3.3135   -0.5776 C.ar      1 <0>        -0.0509
     22 C21        -0.0353   -2.9684   -1.9066 C.ar      1 <0>        -0.2470
     23 C22        -0.1821   -1.6399   -2.2668 C.ar      1 <0>         0.1871
     24 O1         -0.3653   -1.3009   -3.5697 O.3       1 <0>        -0.2771
     25 C23        -0.3967   -2.3682   -4.5195 C.3       1 <0>        -0.0071
     26 C24        -0.6069   -1.8048   -5.9013 C.2       1 <0>         0.5019
     27 O2         -0.7194   -0.6010   -6.0582 O.co2     1 <0>        -0.6684
     28 O3         -0.6645   -2.5529   -6.8624 O.co2     1 <0>        -0.6883
     29 C25        -0.4637    1.6689   -2.4750 C.2       1 <0>         0.4440
     30 O4         -1.5905    1.9796   -2.8089 O.2       1 <0>        -0.4082
     31 C26         0.7073    2.1537   -3.2611 C.2       1 <0>         0.4972
     32 O5          1.8239    1.7615   -2.9911 O.2       1 <0>        -0.5075
     33 N2          0.5258    3.0273   -4.2713 N.am      1 <0>        -0.8259
     34 H1          0.8296    3.0580    0.5604 H         1 <0>         0.0828
     35 H2         -0.7494    3.2607   -0.2357 H         1 <0>         0.0830
     36 H3         -0.6693    2.7087    1.4547 H         1 <0>         0.0752
     37 H4          0.8597   -0.6048    2.5812 H         1 <0>         0.1042
     38 H5          0.7027    1.1673    2.5260 H         1 <0>         0.1027
     39 H6         -2.1702   -0.2426    1.1109 H         1 <0>         0.1300
     40 H7         -4.3661   -0.4029    2.2081 H         1 <0>         0.1251
     41 H8         -4.5554   -0.1272    4.6457 H         1 <0>         0.1244
     42 H9         -2.5475    0.3107    5.9977 H         1 <0>         0.1242
     43 H10         1.0479   -1.1949    4.4016 H         1 <0>         0.1239
     44 H11         3.0587   -0.7576    5.7499 H         1 <0>         0.1249
     45 H12         3.1508    1.2077    7.2270 H         1 <0>         0.1222
     46 H13         1.2342    2.7441    7.3646 H         1 <0>         0.1235
     47 H14        -0.7806    2.3276    6.0156 H         1 <0>         0.1237
     48 H15         0.3393   -2.6262    1.4342 H         1 <0>         0.1156
     49 H16         0.2651   -4.3526   -0.3063 H         1 <0>         0.1252
     50 H17        -0.0663   -3.7381   -2.6636 H         1 <0>         0.1309
     51 H18         0.5483   -2.9104   -4.4881 H         1 <0>         0.0608
     52 H19        -1.2137   -3.0474   -4.2759 H         1 <0>         0.0606
     53 H20        -0.3664    3.3407   -4.4870 H         1 <0>         0.4094
     54 H21         1.2875    3.3426   -4.7825 H         1 <0>         0.4056
@<TRIPOS>BOND
     1    1    2 1
     2    1   34 1
     3    1   35 1
     4    1   36 1
     5    2    6 1
     6    2    3 2
     7    3    4 1
     8    3   29 1
     9    4   23 ar
    10    4    5 ar
    11    5    6 1
    12    5   20 ar
    13    6    7 1
    14    7    8 1
    15    7   37 1
    16    7   38 1
    17    8   13 ar
    18    8    9 ar
    19    9   10 ar
    20    9   39 1
    21   10   11 ar
    22   10   40 1
    23   11   12 ar
    24   11   41 1
    25   12   13 ar
    26   12   42 1
    27   13   14 1
    28   14   19 ar
    29   14   15 ar
    30   15   16 ar
    31   15   43 1
    32   16   17 ar
    33   16   44 1
    34   17   18 ar
    35   17   45 1
    36   18   19 ar
    37   18   46 1
    38   19   47 1
    39   20   21 ar
    40   20   48 1
    41   21   22 ar
    42   21   49 1
    43   22   23 ar
    44   22   50 1
    45   23   24 1
    46   24   25 1
    47   25   26 1
    48   25   51 1
    49   25   52 1
    50   26   27 2
    51   26   28 1
    52   29   30 2
    53   29   31 1
    54   31   32 2
    55   31   33 am
    56   33   53 1
    57   33   54 1
