@<TRIPOS>MOLECULE
ZINC04361776
   50    51     0     0     0
SMALL
USER_CHARGES
4-[4-azepan-1-yl-3-(3-carboxyprop-2-enoylamino)phenyl]amino-4-oxo-but-2-enoic acid
@<TRIPOS>ATOM
      1 C1         -8.5566    3.4875    0.2877 C.ar      1 <0>        -0.1753
      2 C2         -8.6504    2.1094    0.2473 C.ar      1 <0>        -0.1144
      3 C3         -7.5061    1.3389    0.1050 C.ar      1 <0>         0.0237
      4 C4         -6.2575    1.9561    0.0136 C.ar      1 <0>         0.2051
      5 C5         -6.1662    3.3386    0.0548 C.ar      1 <0>        -0.1476
      6 C6         -7.3161    4.1051    0.1922 C.ar      1 <0>         0.1782
      7 N1         -7.2250    5.5008    0.2339 N.am      1 <0>        -0.6713
      8 C7         -6.0898    6.0896    0.6595 C.2       1 <0>         0.5459
      9 O1         -5.1839    5.4123    1.1050 O.2       1 <0>        -0.5128
     10 C8         -5.9465    7.5566    0.5846 C.2       1 <0>        -0.2135
     11 C9         -4.8152    8.1434    1.0087 C.2       1 <0>        -0.0642
     12 C10        -4.6720    9.6092    0.9339 C.2       1 <0>         0.4746
     13 O2         -5.5771   10.2859    0.4887 O.co2     1 <0>        -0.6283
     14 N2         -5.1008    1.1810   -0.1252 N.am      1 <0>        -0.6569
     15 C11        -4.0025    1.7069   -0.7030 C.2       1 <0>         0.5447
     16 O3         -4.0478    2.8168   -1.1968 O.2       1 <0>        -0.5180
     17 C12        -2.7448    0.9352   -0.7361 C.2       1 <0>        -0.2102
     18 C13        -1.6503    1.4593   -1.3119 C.2       1 <0>        -0.0671
     19 C14        -0.3937    0.6882   -1.3450 C.2       1 <0>         0.4750
     20 O4         -0.3484   -0.4207   -0.8515 O.co2     1 <0>        -0.6281
     21 N3         -7.6027   -0.0573    0.0584 N.pl3     1 <0>        -0.5060
     22 C15        -8.1606   -0.5074   -1.2364 C.3       1 <0>         0.0698
     23 C16        -8.5363   -1.9642   -1.2352 C.3       1 <0>        -0.1215
     24 C17       -10.0300   -2.0844   -0.8671 C.3       1 <0>        -0.1206
     25 C18       -10.2571   -1.9422    0.5669 C.3       1 <0>        -0.1159
     26 C19        -9.8050   -0.5644    1.0947 C.3       1 <0>        -0.1559
     27 C20        -8.3086   -0.5801    1.2494 C.3       1 <0>         0.0632
     28 H1         -9.4496    4.0855    0.3941 H         1 <0>         0.1207
     29 H2         -9.6163    1.6320    0.3218 H         1 <0>         0.1284
     30 H3         -5.2019    3.8192   -0.0201 H         1 <0>         0.1781
     31 H4         -7.9789    6.0445   -0.0435 H         1 <0>         0.4106
     32 H5         -6.7513    8.1583    0.1888 H         1 <0>         0.1345
     33 H6         -4.0104    7.5418    1.4045 H         1 <0>         0.1222
     34 H7         -5.0893    0.2653    0.1945 H         1 <0>         0.4174
     35 H8         -2.7046   -0.0508   -0.2973 H         1 <0>         0.1343
     36 H9         -1.6906    2.4453   -1.7506 H         1 <0>         0.1213
     37 H10        -9.0480    0.0842   -1.4614 H         1 <0>         0.0372
     38 H11        -7.4195   -0.3362   -2.0171 H         1 <0>         0.0726
     39 H12        -7.9338   -2.4971   -0.4996 H         1 <0>         0.0770
     40 H13        -8.3682   -2.3866   -2.2259 H         1 <0>         0.0709
     41 H14       -10.3962   -3.0595   -1.1883 H         1 <0>         0.0580
     42 H15       -10.5873   -1.3086   -1.3921 H         1 <0>         0.0575
     43 H16        -9.7037   -2.7210    1.0916 H         1 <0>         0.0616
     44 H17       -11.3208   -2.0670    0.7694 H         1 <0>         0.0551
     45 H18       -10.2711   -0.3714    2.0609 H         1 <0>         0.0678
     46 H19       -10.0919    0.2140    0.3877 H         1 <0>         0.0735
     47 H20        -7.9845   -1.6053    1.4282 H         1 <0>         0.0755
     48 H21        -8.0382    0.0273    2.1131 H         1 <0>         0.0707
     49 O5         -3.5369   10.1980    1.3594 O.co2     1 <0>        -0.7481
     50 O6          0.7029    1.2118   -1.9276 O.co2     1 <0>        -0.7496
@<TRIPOS>BOND
     1    1    6 ar
     2    1    2 ar
     3    1   28 1
     4    2    3 ar
     5    2   29 1
     6    3    4 ar
     7    3   21 1
     8    4    5 ar
     9    4   14 1
    10    5    6 ar
    11    5   30 1
    12    6    7 1
    13    7    8 am
    14    7   31 1
    15    8    9 2
    16    8   10 1
    17   10   11 2
    18   10   32 1
    19   11   12 1
    20   11   33 1
    21   12   13 2
    22   12   49 1
    23   14   15 am
    24   14   34 1
    25   15   16 2
    26   15   17 1
    27   17   18 2
    28   17   35 1
    29   18   19 1
    30   18   36 1
    31   19   20 2
    32   19   50 1
    33   21   27 1
    34   21   22 1
    35   22   23 1
    36   22   37 1
    37   22   38 1
    38   23   24 1
    39   23   39 1
    40   23   40 1
    41   24   25 1
    42   24   41 1
    43   24   42 1
    44   25   26 1
    45   25   43 1
    46   25   44 1
    47   26   27 1
    48   26   45 1
    49   26   46 1
    50   27   47 1
    51   27   48 1
@<TRIPOS>MOLECULE
ZINC13231724
   51    53     0     0     0
SMALL
USER_CHARGES
2-[2-[(4-carboxyphenyl)amino]-2-oxo-ethyl]sulfanyl-3-isobutyl-4-oxo-quinazoline-7-carboxylic acid
@<TRIPOS>ATOM
      1 C1         -0.4096    1.3050    0.9417 C.3       1 <0>        -0.1421
      2 C2         -0.2959   -0.2067    0.7346 C.3       1 <0>        -0.1106
      3 C3          0.5302   -0.8162    1.8690 C.3       1 <0>        -0.1554
      4 C4          0.3900   -0.4879   -0.6039 C.3       1 <0>         0.0936
      5 N1          0.3921   -1.9307   -0.8579 N.am      1 <0>        -0.5269
      6 C5         -0.6408   -2.4962   -1.5240 C.2       1 <0>         0.5576
      7 O1         -1.5778   -1.8278   -1.9195 O.2       1 <0>        -0.5186
      8 C6         -0.5898   -3.9490   -1.7535 C.ar      1 <0>        -0.1982
      9 C7         -1.6083   -4.6195   -2.4299 C.ar      1 <0>        -0.0636
     10 C8         -1.5241   -5.9687   -2.6218 C.ar      1 <0>        -0.0902
     11 C9         -0.4210   -6.6893   -2.1457 C.ar      1 <0>        -0.0679
     12 C10         0.6050   -6.0416   -1.4692 C.ar      1 <0>        -0.0742
     13 C11         0.5296   -4.6607   -1.2664 C.ar      1 <0>         0.1427
     14 N2          1.5057   -3.9881   -0.6123 N.2       1 <0>        -0.5162
     15 C12         1.4392   -2.6930   -0.4253 C.2       1 <0>         0.3378
     16 S1          2.7592   -1.8990    0.4303 S.3       1 <0>         0.0738
     17 C13         3.8254   -3.3250    0.7559 C.3       1 <0>        -0.1559
     18 C14         5.0545   -2.8733    1.5018 C.2       1 <0>         0.5297
     19 O2          5.1957   -1.7026    1.7853 O.2       1 <0>        -0.5076
     20 N3          5.9968   -3.7703    1.8538 N.am      1 <0>        -0.6603
     21 C15         7.1833   -3.3391    2.4452 C.ar      1 <0>         0.1326
     22 C16         7.7377   -2.1168    2.0779 C.ar      1 <0>        -0.1348
     23 C17         8.9066   -1.6857    2.6632 C.ar      1 <0>        -0.0601
     24 C18         9.5424   -2.4823    3.6202 C.ar      1 <0>        -0.1260
     25 C19         8.9852   -3.7122    3.9829 C.ar      1 <0>        -0.0694
     26 C20         7.8134   -4.1346    3.3973 C.ar      1 <0>        -0.1579
     27 C21        10.7974   -2.0262    4.2457 C.2       1 <0>         0.4908
     28 O3         11.3486   -2.7196    5.0775 O.co2     1 <0>        -0.6351
     29 C22        -0.3486   -8.1508   -2.3644 C.2       1 <0>         0.4888
     30 O4          0.6054   -8.7797   -1.9532 O.co2     1 <0>        -0.6207
     31 H1          0.5866    1.7473    0.9439 H         1 <0>         0.0609
     32 H2         -0.9981    1.7392    0.1335 H         1 <0>         0.0565
     33 H3         -0.8982    1.5053    1.8952 H         1 <0>         0.0608
     34 H4         -1.2921   -0.6490    0.7323 H         1 <0>         0.0762
     35 H5          1.5264   -0.3738    1.8712 H         1 <0>         0.0734
     36 H6          0.0416   -0.6158    2.8225 H         1 <0>         0.0586
     37 H7          0.6112   -1.8931    1.7214 H         1 <0>         0.0562
     38 H8         -0.1496    0.0209   -1.4026 H         1 <0>         0.1018
     39 H9          1.4167   -0.1235   -0.5696 H         1 <0>         0.0971
     40 H10        -2.4624   -4.0727   -2.8011 H         1 <0>         0.1320
     41 H11        -2.3146   -6.4850   -3.1461 H         1 <0>         0.1413
     42 H12         1.4536   -6.6003   -1.1029 H         1 <0>         0.1447
     43 H13         3.2830   -4.0544    1.3574 H         1 <0>         0.1323
     44 H14         4.1209   -3.7810   -0.1890 H         1 <0>         0.1317
     45 H15         5.8494   -4.7159    1.6956 H         1 <0>         0.4122
     46 H16         7.2484   -1.5040    1.3353 H         1 <0>         0.1286
     47 H17         9.3342   -0.7351    2.3806 H         1 <0>         0.1332
     48 H18         9.4736   -4.3300    4.7220 H         1 <0>         0.1303
     49 H19         7.3822   -5.0844    3.6773 H         1 <0>         0.1207
     50 O5         11.3330   -0.8406    3.8949 O.co2     1 <0>        -0.7569
     51 O6         -1.3406   -8.7836   -3.0196 O.co2     1 <0>        -0.7472
@<TRIPOS>BOND
     1    1    2 1
     2    1   31 1
     3    1   32 1
     4    1   33 1
     5    2    3 1
     6    2    4 1
     7    2   34 1
     8    3   35 1
     9    3   36 1
    10    3   37 1
    11    4    5 1
    12    4   38 1
    13    4   39 1
    14    5   15 1
    15    5    6 am
    16    6    7 2
    17    6    8 1
    18    8   13 ar
    19    8    9 ar
    20    9   10 ar
    21    9   40 1
    22   10   11 ar
    23   10   41 1
    24   11   12 ar
    25   11   29 1
    26   12   13 ar
    27   12   42 1
    28   13   14 1
    29   14   15 2
    30   15   16 1
    31   16   17 1
    32   17   18 1
    33   17   43 1
    34   17   44 1
    35   18   19 2
    36   18   20 am
    37   20   21 1
    38   20   45 1
    39   21   26 ar
    40   21   22 ar
    41   22   23 ar
    42   22   46 1
    43   23   24 ar
    44   23   47 1
    45   24   25 ar
    46   24   27 1
    47   25   26 ar
    48   25   48 1
    49   26   49 1
    50   27   28 2
    51   27   50 1
    52   29   30 2
    53   29   51 1
@<TRIPOS>MOLECULE
ZINC13407581
   44    46     0     0     0
SMALL
USER_CHARGES
2-[[2-[[5-[2-(2-thienyl)ethylamino]-1,3,4-thiadiazol-2-yl]sulfanyl]acetyl]amino]terephthalic acid
@<TRIPOS>ATOM
      1 C1         -2.0752   -6.7720   -1.0272 C.2       1 <0>        -0.1566
      2 C2         -1.0371   -5.8880   -1.2544 C.2       1 <0>        -0.1524
      3 C3         -0.3767   -5.3630   -0.1934 C.2       1 <0>        -0.1403
      4 S1         -1.2336   -6.1118    1.1822 S.3       1 <0>         0.0410
      5 C4         -2.4091   -7.0795    0.2500 C.2       1 <0>        -0.1738
      6 C5          0.7770   -4.3936   -0.1788 C.3       1 <0>        -0.0459
      7 C6          0.2395   -2.9614   -0.1502 C.3       1 <0>         0.1376
      8 N1          1.3611   -2.0190   -0.1359 N.pl3     1 <0>        -0.6779
      9 C7          1.1187   -0.6506   -0.1094 C.2       1 <0>         0.3376
     10 N2         -0.0314   -0.0059   -0.0942 N.2       1 <0>        -0.3657
     11 N3         -0.0451    1.3695   -0.0682 N.2       1 <0>        -0.2830
     12 C8          1.0927    2.0370   -0.0586 C.2       1 <0>         0.0435
     13 S2          2.2821    0.7047   -0.0870 S.3       1 <0>        -0.0154
     14 S3          1.3660    3.7774   -0.0265 S.3       1 <0>         0.1341
     15 C9         -0.3047    4.4838   -0.0080 C.3       1 <0>        -0.1484
     16 C10        -0.2140    5.9878    0.0202 C.2       1 <0>         0.5213
     17 O1          0.8709    6.5298    0.0272 O.2       1 <0>        -0.5168
     18 N4         -1.3384    6.7305    0.0378 N.am      1 <0>        -0.6270
     19 C11        -1.2562    8.1159    0.1569 C.ar      1 <0>         0.1430
     20 C12        -0.2103    8.8048   -0.4404 C.ar      1 <0>        -0.0983
     21 C13        -0.1344   10.1907   -0.3230 C.ar      1 <0>        -0.1062
     22 C14        -1.1042   10.8869    0.4038 C.ar      1 <0>        -0.1054
     23 C15        -2.1408   10.2076    1.0024 C.ar      1 <0>        -0.0827
     24 C16        -2.2273    8.8180    0.8857 C.ar      1 <0>        -0.1453
     25 C17        -3.3392    8.0901    1.5280 C.2       1 <0>         0.5022
     26 O2         -3.3611    6.8756    1.5096 O.co2     1 <0>        -0.6427
     27 C18         0.9776   10.9264   -0.9644 C.2       1 <0>         0.4970
     28 O3          1.8208   10.3225   -1.5960 O.co2     1 <0>        -0.6340
     29 H1         -2.6151   -7.2076   -1.8549 H         1 <0>         0.1337
     30 H2         -0.7545   -5.6218   -2.2622 H         1 <0>         0.1343
     31 H3         -3.1851   -7.7385    0.6102 H         1 <0>         0.1852
     32 H4          1.3830   -4.5364   -1.0735 H         1 <0>         0.0961
     33 H5          1.3885   -4.5699    0.7062 H         1 <0>         0.0890
     34 H6         -0.3665   -2.8186    0.7445 H         1 <0>         0.0754
     35 H7         -0.3720   -2.7851   -1.0351 H         1 <0>         0.0763
     36 H8          2.2728   -2.3501   -0.1450 H         1 <0>         0.4186
     37 H9         -0.8422    4.1689   -0.9024 H         1 <0>         0.1259
     38 H10        -0.8367    4.1352    0.8772 H         1 <0>         0.1313
     39 H11        -2.2050    6.3003   -0.0325 H         1 <0>         0.4217
     40 H12         0.5420    8.2675   -0.9987 H         1 <0>         0.1409
     41 H13        -1.0399   11.9610    0.4961 H         1 <0>         0.1259
     42 H14        -2.8879   10.7493    1.5634 H         1 <0>         0.1279
     43 O4         -4.3298    8.7726    2.1348 O.co2     1 <0>        -0.7563
     44 O5          1.0546   12.2660   -0.8476 O.co2     1 <0>        -0.7653
@<TRIPOS>BOND
     1    1    5 2
     2    1    2 1
     3    1   29 1
     4    2    3 2
     5    2   30 1
     6    3    4 1
     7    3    6 1
     8    4    5 1
     9    5   31 1
    10    6    7 1
    11    6   32 1
    12    6   33 1
    13    7    8 1
    14    7   34 1
    15    7   35 1
    16    8    9 1
    17    8   36 1
    18    9   13 1
    19    9   10 2
    20   10   11 1
    21   11   12 2
    22   12   13 1
    23   12   14 1
    24   14   15 1
    25   15   16 1
    26   15   37 1
    27   15   38 1
    28   16   17 2
    29   16   18 am
    30   18   19 1
    31   18   39 1
    32   19   24 ar
    33   19   20 ar
    34   20   21 ar
    35   20   40 1
    36   21   22 ar
    37   21   27 1
    38   22   23 ar
    39   22   41 1
    40   23   24 ar
    41   23   42 1
    42   24   25 1
    43   25   26 2
    44   25   43 1
    45   27   28 2
    46   27   44 1
@<TRIPOS>MOLECULE
ZINC13449285
   55    56     0     0     0
SMALL
USER_CHARGES

@<TRIPOS>ATOM
      1 C1         -0.0187    1.5258    0.0104 C.3       1 <0>        -0.1483
      2 C2          0.0021   -0.0041    0.0020 C.3       1 <0>        -0.0838
      3 H1          0.5123   -0.3556   -0.8948 H         1 <0>         0.0727
      4 C3         -1.4333   -0.5336    0.0129 C.3       1 <0>        -0.1174
      5 C4         -1.4126   -2.0635    0.0045 C.3       1 <0>        -0.1163
      6 C5         -0.6726   -2.5703    1.2440 C.3       1 <0>        -0.1340
      7 C6          0.7628   -2.0407    1.2331 C.3       1 <0>         0.1677
      8 H2          1.2730   -2.3923    0.3363 H         1 <0>         0.0895
      9 C7          0.7421   -0.5109    1.2415 C.3       1 <0>        -0.0933
     10 H3          1.7647   -0.1336    1.2338 H         1 <0>         0.0772
     11 C8          0.0259   -0.0175    2.5003 C.3       1 <0>        -0.1559
     12 N1          1.4714   -2.5260    2.4200 N.am      1 <0>        -0.7372
     13 C9          2.0564   -3.7401    2.4061 C.2       1 <0>         0.6965
     14 O1          1.9961   -4.4324    1.4089 O.2       1 <0>        -0.5307
     15 N2          2.7083   -4.1866    3.4980 N.am      1 <0>        -0.6890
     16 C10         3.2933   -5.4007    3.4841 C.2       1 <0>         0.5399
     17 O2          3.2332   -6.0912    2.4894 O.2       1 <0>        -0.4518
     18 C11         4.0222   -5.8999    4.7050 C.3       1 <0>        -0.1382
     19 S1          4.6943   -7.5521    4.3745 S.3       1 <0>         0.0114
     20 C12         5.5053   -7.9905    5.8761 C.ar      1 <0>         0.3030
     21 N3          5.4892   -7.1392    6.8920 N.ar      1 <0>        -0.6249
     22 C13         6.0908   -7.4401    8.0360 C.ar      1 <0>         0.4454
     23 O3          6.0718   -6.5673    9.0725 O.3       1 <0>        -0.6927
     24 C14         6.7424   -8.6671    8.1568 C.ar      1 <0>        -0.2692
     25 C15         6.7364   -9.5268    7.0746 C.ar      1 <0>         0.1573
     26 N4          6.1118   -9.1655    5.9640 N.ar      1 <0>        -0.5831
     27 C16         7.4280  -10.8630    7.1594 C.3       1 <0>        -0.0911
     28 C17         7.4381   -9.0470    9.4386 C.3       1 <0>        -0.0171
     29 C18         6.4542   -9.7754   10.3563 C.3       1 <0>        -0.1644
     30 C19         7.1498  -10.1553   11.6380 C.2       1 <0>         0.4944
     31 O4          8.3237   -9.8699   11.8022 O.co2     1 <0>        -0.7033
     32 O5          6.5387  -10.7480   12.5108 O.co2     1 <0>        -0.7220
     33 H4          1.0039    1.9031    0.0027 H         1 <0>         0.0544
     34 H5         -0.5459    1.8868   -0.8726 H         1 <0>         0.0536
     35 H6         -0.5289    1.8773    0.9072 H         1 <0>         0.0584
     36 H7         -1.9435   -0.1821    0.9097 H         1 <0>         0.0661
     37 H8         -1.9605   -0.1726   -0.8702 H         1 <0>         0.0611
     38 H9         -2.4352   -2.4408    0.0122 H         1 <0>         0.0640
     39 H10        -0.9024   -2.4150   -0.8923 H         1 <0>         0.0642
     40 H11        -1.1828   -2.2188    2.1408 H         1 <0>         0.0670
     41 H12        -0.6578   -3.6602    1.2380 H         1 <0>         0.0698
     42 H13        -0.9967   -0.3948    2.5081 H         1 <0>         0.0652
     43 H14         0.5531   -0.3786    3.3834 H         1 <0>         0.0531
     44 H15         0.0111    1.0724    2.5063 H         1 <0>         0.0611
     45 H16         1.5195   -1.9736    3.2158 H         1 <0>         0.3969
     46 H17         2.7563   -3.6341    4.2938 H         1 <0>         0.4122
     47 H18         4.8373   -5.2175    4.9458 H         1 <0>         0.1245
     48 H19         3.3303   -5.9506    5.5458 H         1 <0>         0.1249
     49 H20         6.7262  -11.6129    7.5245 H         1 <0>         0.0659
     50 H21         7.7852  -11.1506    6.1706 H         1 <0>         0.0599
     51 H22         8.2729  -10.7920    7.8445 H         1 <0>         0.0743
     52 H23         8.2796   -9.7025    9.2147 H         1 <0>         0.0499
     53 H24         7.8006   -8.1472    9.9356 H         1 <0>         0.0636
     54 H25         5.6126   -9.1198   10.5802 H         1 <0>         0.0540
     55 H26         6.0916  -10.6751    9.8592 H         1 <0>         0.0442
@<TRIPOS>BOND
     1    1    2 1
     2    1   33 1
     3    1   34 1
     4    1   35 1
     5    2    3 1
     6    2    9 1
     7    2    4 1
     8    4    5 1
     9    4   36 1
    10    4   37 1
    11    5    6 1
    12    5   38 1
    13    5   39 1
    14    6    7 1
    15    6   40 1
    16    6   41 1
    17    7    8 1
    18    7    9 1
    19    7   12 1
    20    9   10 1
    21    9   11 1
    22   11   42 1
    23   11   43 1
    24   11   44 1
    25   12   13 am
    26   12   45 1
    27   13   14 2
    28   13   15 am
    29   15   16 am
    30   15   46 1
    31   16   17 2
    32   16   18 1
    33   18   19 1
    34   18   47 1
    35   18   48 1
    36   19   20 1
    37   20   26 ar
    38   20   21 ar
    39   21   22 ar
    40   22   23 1
    41   22   24 ar
    42   24   25 ar
    43   24   28 1
    44   25   26 ar
    45   25   27 1
    46   27   49 1
    47   27   50 1
    48   27   51 1
    49   28   29 1
    50   28   52 1
    51   28   53 1
    52   29   30 1
    53   29   54 1
    54   29   55 1
    55   30   31 2
    56   30   32 1
@<TRIPOS>MOLECULE
ZINC48382932
   39    40     0     0     0
SMALL
USER_CHARGES

@<TRIPOS>ATOM
      1 C1         -0.0184    1.5028    0.0103 C.3       1 <0>        -0.0828
      2 C2          0.0021   -0.0041    0.0020 C.2       1 <0>        -0.1369
      3 C3          0.0062   -0.7278   -1.1639 C.2       1 <0>        -0.0491
      4 C4          0.0249   -2.0836   -1.0995 C.2       1 <0>        -0.7888
      5 S1          0.0375   -2.4182    0.5468 S.3       1 <0>         0.2830
      6 C5          0.0238   -0.7497    1.1745 C.2       1 <0>        -0.1783
      7 C6          0.0310   -0.3006    2.5192 C.2       1 <0>         0.5539
      8 O1          0.0171    0.8995    2.7642 O.co2     1 <0>        -0.6702
      9 O2          0.0512   -1.1127    3.4360 O.co2     1 <0>        -0.6829
     10 S2          0.0333   -3.2305   -2.4371 S.o2      1 <0>         2.6550
     11 O3         -0.4984   -4.4476   -1.9318 O.2       1 <0>        -1.0220
     12 O4         -0.5326   -2.5571   -3.5531 O.2       1 <0>        -1.0247
     13 N1          1.6175   -3.5278   -2.8171 N.2       1 <0>        -1.0766
     14 C7          1.9321   -4.4062   -3.8480 C.ar      1 <0>         0.3153
     15 C8          0.9141   -5.0307   -4.5635 C.ar      1 <0>        -0.2816
     16 C9          1.2222   -5.9005   -5.5843 C.ar      1 <0>         0.0065
     17 C10         2.5591   -6.1569   -5.9026 C.ar      1 <0>        -0.2715
     18 C11         3.5790   -5.5283   -5.1823 C.ar      1 <0>        -0.0395
     19 C12         3.2644   -4.6551   -4.1663 C.ar      1 <0>        -0.1930
     20 C13         2.8928   -7.0892   -6.9960 C.2       1 <0>         0.5760
     21 O5          2.0047   -7.6356   -7.6215 O.2       1 <0>        -0.5684
     22 N2          4.1822   -7.3354   -7.3017 N.am      1 <0>        -0.7384
     23 C14         4.5137   -8.2613   -8.3876 C.3       1 <0>         0.1482
     24 C15         6.0112   -8.3600   -8.5240 C.2       1 <0>        -0.1669
     25 C16         6.5982   -9.5299   -8.4696 C.2       1 <0>        -0.1767
     26 H1          1.0042    1.8801    0.0026 H         1 <0>         0.0576
     27 H2         -0.5455    1.8639   -0.8728 H         1 <0>         0.0457
     28 H3         -0.5286    1.8543    0.9071 H         1 <0>         0.0903
     29 H4         -0.0057   -0.2254   -2.1199 H         1 <0>         0.1283
     30 H5         -0.1185   -4.8324   -4.3169 H         1 <0>         0.1033
     31 H6          0.4320   -6.3849   -6.1388 H         1 <0>         0.1140
     32 H7          4.6128   -5.7246   -5.4256 H         1 <0>         0.1046
     33 H8          4.0518   -4.1655   -3.6125 H         1 <0>         0.1184
     34 H9          4.8907   -6.8996   -6.8027 H         1 <0>         0.3993
     35 H10         4.1036   -9.2460   -8.1633 H         1 <0>         0.0659
     36 H11         4.0872   -7.8941   -9.3210 H         1 <0>         0.0704
     37 H12         6.6005   -7.4663   -8.6666 H         1 <0>         0.1142
     38 H13         6.0089  -10.4236   -8.3269 H         1 <0>         0.0987
     39 H14         7.6714   -9.6006   -8.5673 H         1 <0>         0.0997
@<TRIPOS>BOND
     1    1    2 1
     2    1   26 1
     3    1   27 1
     4    1   28 1
     5    2    6 2
     6    2    3 1
     7    3    4 2
     8    3   29 1
     9    4    5 1
    10    4   10 1
    11    5    6 1
    12    6    7 1
    13    7    8 2
    14    7    9 1
    15   10   11 2
    16   10   12 2
    17   10   13 1
    18   13   14 1
    19   14   19 ar
    20   14   15 ar
    21   15   16 ar
    22   15   30 1
    23   16   17 ar
    24   16   31 1
    25   17   18 ar
    26   17   20 1
    27   18   19 ar
    28   18   32 1
    29   19   33 1
    30   20   21 2
    31   20   22 am
    32   22   23 1
    33   22   34 1
    34   23   24 1
    35   23   35 1
    36   23   36 1
    37   24   25 2
    38   24   37 1
    39   25   38 1
    40   25   39 1
@<TRIPOS>MOLECULE
ZINC09884839
   41    43     0     0     0
SMALL
USER_CHARGES
2-[4-oxo-2-thioxo-5-[[5-[2-(trifluoromethyl)phenyl]-2-furyl]methylene]thiazolidin-3-yl]butanedioic acid
@<TRIPOS>ATOM
      1 C1          5.2540   -4.3065   -4.0099 C.ar      1 <0>        -0.0909
      2 C2          4.0492   -4.8477   -4.4239 C.ar      1 <0>        -0.1149
      3 C3          3.0843   -5.1963   -3.4955 C.ar      1 <0>        -0.0738
      4 C4          3.3190   -5.0105   -2.1490 C.ar      1 <0>        -0.1546
      5 C5          4.5307   -4.4603   -1.7241 C.ar      1 <0>         0.0387
      6 C6          5.5007   -4.1110   -2.6674 C.ar      1 <0>        -0.0919
      7 C7          4.7876   -4.2545   -0.2855 C.2       1 <0>         0.0120
      8 C8          5.8326   -4.7812    0.4196 C.2       1 <0>        -0.1844
      9 C9          5.7023   -4.3416    1.7395 C.2       1 <0>        -0.1738
     10 C10         4.5664   -3.5529    1.7866 C.2       1 <0>         0.0179
     11 O1          4.0289   -3.5208    0.5489 O.3       1 <0>        -0.0851
     12 C11         4.0558   -2.9012    2.9298 C.2       1 <0>         0.0300
     13 C12         3.0014   -2.0424    2.8120 C.2       1 <0>        -0.1696
     14 C13         2.3343   -1.5362    1.6012 C.2       1 <0>         0.5350
     15 O2          2.6960   -1.8681    0.4866 O.2       1 <0>        -0.4066
     16 N1          1.3260   -0.7002    1.7827 N.am      1 <0>        -0.4670
     17 C14         0.9248   -0.3393    3.0189 C.2       1 <0>         0.3202
     18 S1         -0.3500    0.7156    3.4582 S.2       1 <0>        -0.3238
     19 S2          2.0472   -1.2284    4.0858 S.3       1 <0>        -0.0071
     20 C15         0.6255   -0.1586    0.6156 C.3       1 <0>         0.0944
     21 H1          1.0773   -0.5528   -0.2946 H         1 <0>         0.1113
     22 C16         0.7334    1.3676    0.6189 C.3       1 <0>        -0.1702
     23 C17         2.1748    1.7697    0.4407 C.2       1 <0>         0.4620
     24 O3          3.0282    0.9225    0.3232 O.co2     1 <0>        -0.6385
     25 C18        -0.8261   -0.5597    0.6702 C.2       1 <0>         0.4778
     26 O4         -1.2337   -1.2292    1.5897 O.co2     1 <0>        -0.6233
     27 C19         2.2689   -5.3956   -1.1390 C.3       1 <0>         0.4986
     28 F1          1.2164   -6.0506   -1.7873 F         1 <0>        -0.1818
     29 F2          2.8315   -6.2490   -0.1838 F         1 <0>        -0.1785
     30 F3          1.7841   -4.2448   -0.5084 F         1 <0>        -0.1457
     31 H2          6.0028   -4.0371   -4.7401 H         1 <0>         0.1361
     32 H3          3.8616   -4.9990   -5.4767 H         1 <0>         0.1356
     33 H4          2.1467   -5.6185   -3.8257 H         1 <0>         0.1416
     34 H5          6.4412   -3.6886   -2.3457 H         1 <0>         0.1397
     35 H6          6.6132   -5.4178    0.0299 H         1 <0>         0.1510
     36 H7          6.3612   -4.5722    2.5635 H         1 <0>         0.1568
     37 H8          4.4994   -3.0821    3.8978 H         1 <0>         0.1738
     38 H9          0.1386    1.7757   -0.1984 H         1 <0>         0.0913
     39 H10         0.3624    1.7560    1.5674 H         1 <0>         0.0963
     40 O5          2.5105    3.0690    0.4127 O.co2     1 <0>        -0.7831
     41 O6         -1.6663   -0.1731   -0.3026 O.co2     1 <0>        -0.7554
@<TRIPOS>BOND
     1    1    6 ar
     2    1    2 ar
     3    1   31 1
     4    2    3 ar
     5    2   32 1
     6    3    4 ar
     7    3   33 1
     8    4    5 ar
     9    4   27 1
    10    5    6 ar
    11    5    7 1
    12    6   34 1
    13    7   11 1
    14    7    8 2
    15    8    9 1
    16    8   35 1
    17    9   10 2
    18    9   36 1
    19   10   11 1
    20   10   12 1
    21   12   13 2
    22   12   37 1
    23   13   19 1
    24   13   14 1
    25   14   15 2
    26   14   16 am
    27   16   17 1
    28   16   20 1
    29   17   18 2
    30   17   19 1
    31   20   21 1
    32   20   22 1
    33   20   25 1
    34   22   23 1
    35   22   38 1
    36   22   39 1
    37   23   24 2
    38   23   40 1
    39   25   26 2
    40   25   41 1
    41   27   28 1
    42   27   29 1
    43   27   30 1
@<TRIPOS>MOLECULE
ZINC13391906
   49    51     0     0     0
SMALL
USER_CHARGES
2-[(4-methoxy-3-pyrrolidin-1-ylsulfonyl-benzoyl)amino]terephthalic acid
@<TRIPOS>ATOM
      1 C1          7.6056    8.2857   -0.7132 C.3       1 <0>         0.0242
      2 O1          6.3272    8.8853   -0.4937 O.3       1 <0>        -0.3108
      3 C2          5.2675    8.0473   -0.3650 C.ar      1 <0>         0.2351
      4 C3          5.4566    6.6726   -0.4491 C.ar      1 <0>        -0.2317
      5 C4          4.3850    5.8189   -0.3137 C.ar      1 <0>         0.0168
      6 C5          3.1039    6.3365   -0.1030 C.ar      1 <0>        -0.1671
      7 C6          2.9181    7.7189   -0.0190 C.ar      1 <0>         0.0681
      8 C7          3.9961    8.5658   -0.1497 C.ar      1 <0>        -0.7205
      9 S1          3.7632   10.3092   -0.0446 S.o2      1 <0>         2.7191
     10 O2          4.4325   10.8765   -1.1624 O.2       1 <0>        -0.9467
     11 O3          2.3797   10.5199    0.2024 O.2       1 <0>        -0.9509
     12 N1          4.5696   10.8305    1.3046 N.pl3     1 <0>        -1.0088
     13 C8          4.0003   10.9352    2.6561 C.3       1 <0>         0.1156
     14 C9          5.1078   11.4867    3.5783 C.3       1 <0>        -0.1275
     15 C10         6.0606   12.2020    2.5844 C.3       1 <0>        -0.1305
     16 C11         5.9753   11.2725    1.3482 C.3       1 <0>         0.1215
     17 C12         1.9516    5.4254    0.0365 C.2       1 <0>         0.5464
     18 O4          0.8386    5.8772    0.2248 O.2       1 <0>        -0.5228
     19 N2          2.1329    4.0923   -0.0448 N.am      1 <0>        -0.6332
     20 C13         1.0339    3.2382   -0.0280 C.ar      1 <0>         0.1418
     21 C14        -0.0086    3.4628    0.8602 C.ar      1 <0>        -0.0912
     22 C15        -1.1062    2.6055    0.8740 C.ar      1 <0>        -0.1071
     23 C16        -1.1616    1.5229   -0.0084 C.ar      1 <0>        -0.1030
     24 C17        -0.1280    1.2928   -0.8875 C.ar      1 <0>        -0.0845
     25 C18         0.9770    2.1476   -0.9084 C.ar      1 <0>        -0.1434
     26 C19         2.0828    1.9032   -1.8549 C.2       1 <0>         0.5034
     27 O5          3.0278    2.6656   -1.8948 O.co2     1 <0>        -0.6450
     28 C20        -2.2180    2.8443    1.8207 C.2       1 <0>         0.4972
     29 O6         -2.1731    3.7872    2.5846 O.co2     1 <0>        -0.6344
     30 H1          8.3628    9.0651   -0.7981 H         1 <0>         0.1050
     31 H2          7.8490    7.6322    0.1245 H         1 <0>         0.0617
     32 H3          7.5800    7.7023   -1.6336 H         1 <0>         0.0645
     33 H4          6.4462    6.2736   -0.6161 H         1 <0>         0.1428
     34 H5          4.5335    4.7509   -0.3748 H         1 <0>         0.1494
     35 H6          1.9305    8.1226    0.1486 H         1 <0>         0.1637
     36 H7          3.1490   11.6158    2.6480 H         1 <0>         0.0744
     37 H8          3.6872    9.9507    3.0037 H         1 <0>         0.0695
     38 H9          5.6248   10.6768    4.0931 H         1 <0>         0.0754
     39 H10         4.6952   12.1963    4.2955 H         1 <0>         0.0798
     40 H11         7.0772   12.2393    2.9758 H         1 <0>         0.0798
     41 H12         5.6981   13.2022    2.3469 H         1 <0>         0.0748
     42 H13         6.6386   10.4162    1.4709 H         1 <0>         0.0682
     43 H14         6.2283   11.8225    0.4418 H         1 <0>         0.0818
     44 H15         3.0292    3.7281   -0.1150 H         1 <0>         0.4140
     45 H16         0.0310    4.3015    1.5394 H         1 <0>         0.1331
     46 H17        -2.0162    0.8626    0.0025 H         1 <0>         0.1263
     47 H18        -0.1731    0.4530   -1.5650 H         1 <0>         0.1280
     48 O7          2.0441    0.8346   -2.6746 O.co2     1 <0>        -0.7573
     49 O8         -3.2800    2.0160    1.8350 O.co2     1 <0>        -0.7648
@<TRIPOS>BOND
     1    1    2 1
     2    1   30 1
     3    1   31 1
     4    1   32 1
     5    2    3 1
     6    3    8 ar
     7    3    4 ar
     8    4    5 ar
     9    4   33 1
    10    5    6 ar
    11    5   34 1
    12    6    7 ar
    13    6   17 1
    14    7    8 ar
    15    7   35 1
    16    8    9 1
    17    9   10 2
    18    9   11 2
    19    9   12 1
    20   12   16 1
    21   12   13 1
    22   13   14 1
    23   13   36 1
    24   13   37 1
    25   14   15 1
    26   14   38 1
    27   14   39 1
    28   15   16 1
    29   15   40 1
    30   15   41 1
    31   16   42 1
    32   16   43 1
    33   17   18 2
    34   17   19 am
    35   19   20 1
    36   19   44 1
    37   20   25 ar
    38   20   21 ar
    39   21   22 ar
    40   21   45 1
    41   22   23 ar
    42   22   28 1
    43   23   24 ar
    44   23   46 1
    45   24   25 ar
    46   24   47 1
    47   25   26 1
    48   26   27 2
    49   26   48 1
    50   28   29 2
    51   28   49 1
@<TRIPOS>MOLECULE
ZINC17968523
   49    52     0     0     0
SMALL
USER_CHARGES

@<TRIPOS>ATOM
      1 C1         -0.7510    1.4128    0.0602 C.3       1 <0>        -0.0906
      2 C2         -0.5221   -0.0766    0.0405 C.ar      1 <0>         0.1646
      3 C3         -0.4788   -0.7613   -1.1583 C.ar      1 <0>        -0.2709
      4 C4         -0.2638   -2.1405   -1.1263 C.ar      1 <0>         0.4711
      5 N1         -0.1095   -2.7406    0.0505 N.ar      1 <0>        -0.6273
      6 C5         -0.1583   -2.0477    1.1701 C.ar      1 <0>         0.3448
      7 N2         -0.3545   -0.7445    1.1731 N.ar      1 <0>        -0.5980
      8 C6          0.0211   -2.7645    2.4835 C.3       1 <0>        -0.0768
      9 N3         -0.2124   -2.8722   -2.3016 N.2       1 <0>        -1.0617
     10 S1          0.0434   -4.5075   -2.2483 S.o2      1 <0>         2.6336
     11 O1          1.3607   -4.6965   -1.7500 O.2       1 <0>        -1.0202
     12 O2         -1.0974   -5.0767   -1.6208 O.2       1 <0>        -1.0181
     13 C7          0.0459   -5.0889   -3.9116 C.ar      1 <0>        -0.6421
     14 C8         -1.1368   -5.4941   -4.5026 C.ar      1 <0>        -0.0028
     15 C9         -1.1383   -5.9503   -5.8062 C.ar      1 <0>        -0.1456
     16 C10         0.0497   -6.0014   -6.5237 C.ar      1 <0>         0.1873
     17 C11         1.2356   -5.5933   -5.9274 C.ar      1 <0>        -0.1713
     18 C12         1.2296   -5.1336   -4.6251 C.ar      1 <0>        -0.0048
     19 N4          0.0517   -6.4635   -7.8444 N.am      1 <0>        -0.6722
     20 C13        -1.0115   -6.2340   -8.6403 C.2       1 <0>         0.5340
     21 O3         -1.9283   -5.5459   -8.2440 O.2       1 <0>        -0.4957
     22 C14        -1.0611   -6.8323  -10.0225 C.3       1 <0>        -0.1423
     23 S2         -2.6064   -6.3441  -10.8376 S.3       1 <0>         0.0449
     24 C15        -2.5143   -7.1120  -12.4208 C.2       1 <0>         0.1940
     25 N5         -3.4666   -7.0182  -13.3953 N.2       1 <0>        -0.5523
     26 C16        -3.0185   -7.7587  -14.4759 C.ar      1 <0>        -0.0206
     27 C17        -3.5303   -8.0402  -15.7335 C.ar      1 <0>        -0.0383
     28 C18        -2.7824   -8.8437  -16.5813 C.ar      1 <0>        -0.1202
     29 C19        -1.5605   -9.3353  -16.1513 C.ar      1 <0>         0.0924
     30 N6         -1.0926   -9.0558  -14.9530 N.ar      1 <0>        -0.4542
     31 C20        -1.7712   -8.2897  -14.1016 C.ar      1 <0>         0.2047
     32 N7         -1.5182   -7.8547  -12.8417 N.2       1 <0>        -0.5655
     33 Cl1        -3.3725   -9.2307  -18.1674 Cl        1 <0>        -0.0994
     34 H1          0.2079    1.9284    0.0072 H         1 <0>         0.0691
     35 H2         -1.3643    1.6975   -0.7947 H         1 <0>         0.0686
     36 H3         -1.2620    1.6897    0.9823 H         1 <0>         0.0679
     37 H4         -0.6083   -0.2429   -2.0968 H         1 <0>         0.1270
     38 H5          1.0786   -2.7804    2.7472 H         1 <0>         0.0725
     39 H6         -0.5393   -2.2448    3.2606 H         1 <0>         0.0725
     40 H7         -0.3461   -3.7868    2.3927 H         1 <0>         0.0754
     41 H8         -2.0603   -5.4541   -3.9441 H         1 <0>         0.1391
     42 H9         -2.0622   -6.2673   -6.2670 H         1 <0>         0.1403
     43 H10         2.1612   -5.6322   -6.4827 H         1 <0>         0.1298
     44 H11         2.1509   -4.8122   -4.1621 H         1 <0>         0.1388
     45 H12         0.8183   -6.9491   -8.1872 H         1 <0>         0.4136
     46 H13        -0.2133   -6.4718  -10.6051 H         1 <0>         0.1188
     47 H14        -1.0162   -7.9190   -9.9499 H         1 <0>         0.1199
     48 H15        -4.4860   -7.6447  -16.0444 H         1 <0>         0.1207
     49 H16        -0.9799   -9.9610  -16.8129 H         1 <0>         0.1455
@<TRIPOS>BOND
     1    1    2 1
     2    1   34 1
     3    1   35 1
     4    1   36 1
     5    2    7 ar
     6    2    3 ar
     7    3    4 ar
     8    3   37 1
     9    4    5 ar
    10    4    9 1
    11    5    6 ar
    12    6    7 ar
    13    6    8 1
    14    8   38 1
    15    8   39 1
    16    8   40 1
    17    9   10 1
    18   10   11 2
    19   10   12 2
    20   10   13 1
    21   13   18 ar
    22   13   14 ar
    23   14   15 ar
    24   14   41 1
    25   15   16 ar
    26   15   42 1
    27   16   17 ar
    28   16   19 1
    29   17   18 ar
    30   17   43 1
    31   18   44 1
    32   19   20 am
    33   19   45 1
    34   20   21 2
    35   20   22 1
    36   22   23 1
    37   22   46 1
    38   22   47 1
    39   23   24 1
    40   24   32 2
    41   24   25 1
    42   25   26 1
    43   26   31 ar
    44   26   27 ar
    45   27   28 ar
    46   27   48 1
    47   28   29 ar
    48   28   33 1
    49   29   30 ar
    50   29   49 1
    51   30   31 ar
    52   31   32 1
@<TRIPOS>MOLECULE
ZINC13214154
   52    55     0     0     0
SMALL
USER_CHARGES

@<TRIPOS>ATOM
      1 C1          0.0565    1.1215    0.8068 C.3       1 <0>        -0.1127
      2 C2          0.2506   -0.3545    0.5727 C.ar      1 <0>        -0.0794
      3 C3          0.0893   -0.8805   -0.6944 C.ar      1 <0>        -0.1162
      4 C4          0.2672   -2.2347   -0.9098 C.ar      1 <0>        -0.0456
      5 C5          0.6070   -3.0656    0.1417 C.ar      1 <0>        -0.0812
      6 C6          0.7695   -2.5444    1.4107 C.ar      1 <0>        -0.0721
      7 C7          0.5971   -1.1852    1.6284 C.ar      1 <0>         0.0450
      8 O1          0.7624   -0.6691    2.8747 O.3       1 <0>        -0.3250
      9 C8         -0.3916   -0.6236    3.7163 C.3       1 <0>         0.3999
     10 F1         -1.3788    0.1622    3.1119 F         1 <0>        -0.2033
     11 F2         -0.8803   -1.9203    3.9082 F         1 <0>        -0.1992
     12 C9          1.1398   -3.4507    2.5565 C.3       1 <0>        -0.1185
     13 C10         0.0901   -2.8059   -2.2931 C.3       1 <0>         0.2611
     14 H1         -0.3985   -2.0770   -2.9396 H         1 <0>         0.0789
     15 C11         1.4310   -3.1960   -2.8699 C.2       1 <0>        -0.5026
     16 C12         1.3818   -4.5275   -3.1060 C.2       1 <0>         0.2780
     17 C13         0.0572   -5.0428   -2.7083 C.2       1 <0>         0.5019
     18 O2         -0.2954   -6.2024   -2.7978 O.2       1 <0>        -0.4950
     19 N1         -0.7039   -4.0389   -2.2322 N.am      1 <0>        -0.5488
     20 C14        -2.0159   -4.1504   -1.7625 C.ar      1 <0>         0.1643
     21 C15        -2.6874   -3.0234   -1.3015 C.ar      1 <0>        -0.1642
     22 C16        -3.9847   -3.1277   -0.8360 C.ar      1 <0>        -0.1162
     23 C17        -4.6230   -4.3511   -0.8253 C.ar      1 <0>        -0.1176
     24 C18        -3.9579   -5.4899   -1.2866 C.ar      1 <0>        -0.1112
     25 C19        -2.6492   -5.3833   -1.7617 C.ar      1 <0>        -0.1201
     26 C20        -4.6376   -6.7996   -1.2764 C.2       1 <0>         0.5225
     27 O3         -5.7852   -6.8896   -0.8637 O.co2     1 <0>        -0.6975
     28 O4         -4.0533   -7.7949   -1.6807 O.co2     1 <0>        -0.6807
     29 O5          2.3880   -5.2694   -3.6255 O.3       1 <0>        -0.6481
     30 C21         2.5671   -2.3032   -3.1253 C.2       1 <0>         0.5443
     31 O6          3.6092   -2.4525   -2.5118 O.2       1 <0>        -0.4561
     32 C22         2.4483   -1.2316   -4.1185 C.2       1 <0>        -0.0539
     33 C23         3.4547   -0.3778   -4.5159 C.2       1 <0>        -0.1629
     34 C24         2.8960    0.4786   -5.4756 C.2       1 <0>        -0.2281
     35 C25         1.5997    0.1222   -5.6231 C.2       1 <0>        -0.0331
     36 O7          1.3359   -0.9092   -4.8106 O.3       1 <0>        -0.1414
     37 H2          1.0048    1.6398    0.6645 H         1 <0>         0.0670
     38 H3         -0.6783    1.5079    0.1005 H         1 <0>         0.0646
     39 H4         -0.2974    1.2845    1.8248 H         1 <0>         0.0716
     40 H5         -0.1765   -0.2336   -1.5174 H         1 <0>         0.1261
     41 H6          0.7451   -4.1230   -0.0290 H         1 <0>         0.1253
     42 H7         -0.1219   -0.1907    4.6796 H         1 <0>         0.1663
     43 H8          2.2252   -3.5074    2.6387 H         1 <0>         0.0704
     44 H9          0.7256   -3.0529    3.4829 H         1 <0>         0.0722
     45 H10         0.7365   -4.4472    2.3765 H         1 <0>         0.0690
     46 H11        -2.1934   -2.0630   -1.3069 H         1 <0>         0.1142
     47 H12        -4.5005   -2.2486   -0.4790 H         1 <0>         0.1114
     48 H13        -5.6364   -4.4283   -0.4600 H         1 <0>         0.1206
     49 H14        -2.1309   -6.2590   -2.1235 H         1 <0>         0.1571
     50 H15         4.4737   -0.3700   -4.1583 H         1 <0>         0.1519
     51 H16         3.4055    1.2744   -5.9985 H         1 <0>         0.1465
     52 H17         0.8927    0.5907   -6.2917 H         1 <0>         0.2005
@<TRIPOS>BOND
     1    1    2 1
     2    1   37 1
     3    1   38 1
     4    1   39 1
     5    2    7 ar
     6    2    3 ar
     7    3    4 ar
     8    3   40 1
     9    4    5 ar
    10    4   13 1
    11    5    6 ar
    12    5   41 1
    13    6    7 ar
    14    6   12 1
    15    7    8 1
    16    8    9 1
    17    9   10 1
    18    9   11 1
    19    9   42 1
    20   12   43 1
    21   12   44 1
    22   12   45 1
    23   13   14 1
    24   13   19 1
    25   13   15 1
    26   15   16 2
    27   15   30 1
    28   16   17 1
    29   16   29 1
    30   17   18 2
    31   17   19 am
    32   19   20 1
    33   20   25 ar
    34   20   21 ar
    35   21   22 ar
    36   21   46 1
    37   22   23 ar
    38   22   47 1
    39   23   24 ar
    40   23   48 1
    41   24   25 ar
    42   24   26 1
    43   25   49 1
    44   26   27 2
    45   26   28 1
    46   30   31 2
    47   30   32 1
    48   32   36 1
    49   32   33 2
    50   33   34 1
    51   33   50 1
    52   34   35 2
    53   34   51 1
    54   35   36 1
    55   35   52 1
@<TRIPOS>MOLECULE
ZINC13231823
   52    55     0     0     0
SMALL
USER_CHARGES

@<TRIPOS>ATOM
      1 C1         -0.0187    1.5258    0.0104 C.3       1 <0>        -0.1415
      2 C2          0.0021   -0.0041    0.0020 C.3       1 <0>        -0.1115
      3 C3          0.7421   -0.5109    1.2415 C.3       1 <0>        -0.1435
      4 C4         -1.4333   -0.5336    0.0129 C.3       1 <0>         0.0946
      5 N1         -2.1054   -0.1483   -1.2305 N.am      1 <0>        -0.5251
      6 C5         -2.7723    1.0270   -1.2964 C.2       1 <0>         0.5579
      7 O1         -2.8263    1.7761   -0.3388 O.2       1 <0>        -0.5160
      8 C6         -3.4298    1.3670   -2.5689 C.ar      1 <0>        -0.2027
      9 C7         -4.1395    2.5563   -2.7311 C.ar      1 <0>        -0.0636
     10 C8         -4.7351    2.8357   -3.9274 C.ar      1 <0>        -0.0991
     11 C9         -4.6408    1.9366   -4.9984 C.ar      1 <0>        -0.0902
     12 C10        -3.9388    0.7452   -4.8585 C.ar      1 <0>        -0.0750
     13 C11        -3.3245    0.4493   -3.6381 C.ar      1 <0>         0.1434
     14 N2         -2.6298   -0.6985   -3.4566 N.2       1 <0>        -0.5234
     15 C12        -2.0490   -0.9757   -2.3154 C.2       1 <0>         0.3337
     16 S1         -1.1594   -2.4898   -2.1717 S.3       1 <0>         0.0878
     17 C13        -1.3370   -3.2599   -3.8045 C.3       1 <0>        -0.0804
     18 C14        -0.6122   -4.5810   -3.8183 C.2       1 <0>         0.3894
     19 N3         -0.6252   -5.3112   -4.9639 N.am      1 <0>        -0.6477
     20 H1         -1.0946   -4.9744   -5.7431 H         1 <0>         0.4172
     21 C15         0.0109   -6.5039   -5.0281 C.2       1 <0>         0.5571
     22 O2          0.0076   -7.1681   -6.0478 O.2       1 <0>        -0.5210
     23 C16         0.7080   -6.9669   -3.8155 C.ar      1 <0>        -0.1982
     24 C17         1.3923   -8.1804   -3.7803 C.ar      1 <0>        -0.0656
     25 C18         2.0256   -8.5712   -2.6350 C.ar      1 <0>        -0.0933
     26 C19         1.9940   -7.7620   -1.4917 C.ar      1 <0>        -0.0914
     27 C20         1.3163   -6.5478   -1.5062 C.ar      1 <0>        -0.0658
     28 C21         0.6661   -6.1391   -2.6723 C.ar      1 <0>         0.1317
     29 N4         -0.0030   -4.9606   -2.7365 N.2       1 <0>        -0.4932
     30 C22         2.6854   -8.2022   -0.2616 C.2       1 <0>         0.5206
     31 O3          3.2821   -9.2690   -0.2442 O.co2     1 <0>        -0.6809
     32 O4          2.6605   -7.4993    0.7384 O.co2     1 <0>        -0.6761
     33 C23        -5.2928    2.2574   -6.2856 C.2       1 <0>         0.5206
     34 O5         -5.9117    3.3040   -6.4132 O.co2     1 <0>        -0.6815
     35 O6         -5.2131    1.4762   -7.2226 O.co2     1 <0>        -0.6785
     36 H2          1.0039    1.9031    0.0027 H         1 <0>         0.0517
     37 H3         -0.5459    1.8868   -0.8726 H         1 <0>         0.0493
     38 H4         -0.5289    1.8773    0.9072 H         1 <0>         0.0608
     39 H5          0.5123   -0.3556   -0.8948 H         1 <0>         0.0813
     40 H6          0.2319   -0.1594    2.1383 H         1 <0>         0.0556
     41 H7          0.7568   -1.6008    1.2356 H         1 <0>         0.0652
     42 H8          1.7647   -0.1336    1.2338 H         1 <0>         0.0604
     43 H9         -1.4190   -1.6203    0.0965 H         1 <0>         0.0992
     44 H10        -1.9701   -0.1109    0.8621 H         1 <0>         0.1009
     45 H11        -4.2181    3.2552   -1.9116 H         1 <0>         0.1294
     46 H12        -5.2843    3.7576   -4.0494 H         1 <0>         0.1358
     47 H13        -3.8684    0.0541   -5.6854 H         1 <0>         0.1427
     48 H14        -2.3937   -3.4229   -4.0162 H         1 <0>         0.1312
     49 H15        -0.9113   -2.6039   -4.5638 H         1 <0>         0.1311
     50 H16         1.4216   -8.8106   -4.6568 H         1 <0>         0.1313
     51 H17         2.5549   -9.5123   -2.6104 H         1 <0>         0.1377
     52 H18         1.2930   -5.9264   -0.6231 H         1 <0>         0.1469
@<TRIPOS>BOND
     1    1    2 1
     2    1   36 1
     3    1   37 1
     4    1   38 1
     5    2    3 1
     6    2    4 1
     7    2   39 1
     8    3   40 1
     9    3   41 1
    10    3   42 1
    11    4    5 1
    12    4   43 1
    13    4   44 1
    14    5   15 1
    15    5    6 am
    16    6    7 2
    17    6    8 1
    18    8   13 ar
    19    8    9 ar
    20    9   10 ar
    21    9   45 1
    22   10   11 ar
    23   10   46 1
    24   11   12 ar
    25   11   33 1
    26   12   13 ar
    27   12   47 1
    28   13   14 1
    29   14   15 2
    30   15   16 1
    31   16   17 1
    32   17   18 1
    33   17   48 1
    34   17   49 1
    35   18   29 2
    36   18   19 1
    37   19   20 1
    38   19   21 am
    39   21   22 2
    40   21   23 1
    41   23   28 ar
    42   23   24 ar
    43   24   25 ar
    44   24   50 1
    45   25   26 ar
    46   25   51 1
    47   26   27 ar
    48   26   30 1
    49   27   28 ar
    50   27   52 1
    51   28   29 1
    52   30   31 2
    53   30   32 1
    54   33   34 2
    55   33   35 1
@<TRIPOS>MOLECULE
ZINC10232846
   41    43     0     0     0
SMALL
USER_CHARGES
2-[4-oxo-2-thioxo-5-[[5-[2-(trifluoromethyl)phenyl]-2-furyl]methylene]thiazolidin-3-yl]butanedioic acid
@<TRIPOS>ATOM
      1 C1          4.6571    6.4929    0.9111 C.ar      1 <0>        -0.0906
      2 C2          4.1825    7.4210    0.0005 C.ar      1 <0>        -0.1151
      3 C3          3.2036    7.0676   -0.9112 C.ar      1 <0>        -0.0718
      4 C4          2.6938    5.7859   -0.9187 C.ar      1 <0>        -0.1580
      5 C5          3.1683    4.8438   -0.0029 C.ar      1 <0>         0.0371
      6 C6          4.1533    5.2093    0.9184 C.ar      1 <0>        -0.0954
      7 C7          2.6275    3.4707   -0.0044 C.2       1 <0>         0.0009
      8 C8          3.3691    2.3233   -0.0176 C.2       1 <0>        -0.1675
      9 C9          2.4715    1.2525   -0.0148 C.2       1 <0>        -0.1717
     10 C10         1.2001    1.7981    0.0003 C.2       1 <0>         0.0330
     11 O1          1.3228    3.1423    0.0004 O.3       1 <0>        -0.1343
     12 C11        -0.0126    1.0758    0.0080 C.2       1 <0>         0.0216
     13 C12        -1.2038    1.7422    0.0172 C.2       1 <0>        -0.1621
     14 C13        -2.5765    1.2101    0.0208 C.2       1 <0>         0.5498
     15 O2         -2.7973    0.0124    0.0154 O.2       1 <0>        -0.4430
     16 N1         -3.5581    2.0961    0.0308 N.am      1 <0>        -0.4703
     17 C14        -3.3095    3.4219    0.0372 C.2       1 <0>         0.3041
     18 S1         -4.4316    4.7148    0.0502 S.2       1 <0>        -0.3156
     19 S2         -1.5256    3.5005    0.0363 S.3       1 <0>         0.0354
     20 C15        -4.9461    1.6275    0.0353 C.3       1 <0>         0.0910
     21 H1         -4.9616    0.5376    0.0294 H         1 <0>         0.1129
     22 C16        -5.6664    2.1546   -1.2074 C.3       1 <0>        -0.1701
     23 C17        -5.0460    1.5515   -2.4412 C.2       1 <0>         0.4617
     24 O3         -4.1226    0.7793   -2.3373 O.co2     1 <0>        -0.6400
     25 C18        -5.6429    2.1331    1.2722 C.2       1 <0>         0.4774
     26 O4         -5.0418    2.8150    2.0682 O.co2     1 <0>        -0.6241
     27 C19         1.6272    5.4030   -1.9121 C.3       1 <0>         0.4958
     28 F1          1.3201    6.5066   -2.7152 F         1 <0>        -0.1792
     29 F2          2.0924    4.3566   -2.7157 F         1 <0>        -0.1750
     30 F3          0.4789    4.9904   -1.2277 F         1 <0>        -0.1450
     31 H2          5.4211    6.7758    1.6201 H         1 <0>         0.1365
     32 H3          4.5780    8.4260    0.0018 H         1 <0>         0.1362
     33 H4          2.8374    7.7971   -1.6184 H         1 <0>         0.1433
     34 H5          4.5218    4.4872    1.6319 H         1 <0>         0.1403
     35 H6          4.4470    2.2565   -0.0280 H         1 <0>         0.1550
     36 H7          2.7218    0.2019   -0.0234 H         1 <0>         0.1618
     37 H8          0.0021   -0.0041    0.0020 H         1 <0>         0.1811
     38 H9         -6.7204    1.8810   -1.1598 H         1 <0>         0.0928
     39 H10        -5.5742    3.2399   -1.2478 H         1 <0>         0.0965
     40 O5         -5.5194    1.8721   -3.6557 O.co2     1 <0>        -0.7815
     41 O6         -6.9314    1.8260    1.4895 O.co2     1 <0>        -0.7541
@<TRIPOS>BOND
     1    1    6 ar
     2    1    2 ar
     3    1   31 1
     4    2    3 ar
     5    2   32 1
     6    3    4 ar
     7    3   33 1
     8    4    5 ar
     9    4   27 1
    10    5    6 ar
    11    5    7 1
    12    6   34 1
    13    7   11 1
    14    7    8 2
    15    8    9 1
    16    8   35 1
    17    9   10 2
    18    9   36 1
    19   10   11 1
    20   10   12 1
    21   12   13 2
    22   12   37 1
    23   13   19 1
    24   13   14 1
    25   14   15 2
    26   14   16 am
    27   16   17 1
    28   16   20 1
    29   17   18 2
    30   17   19 1
    31   20   21 1
    32   20   22 1
    33   20   25 1
    34   22   23 1
    35   22   38 1
    36   22   39 1
    37   23   24 2
    38   23   40 1
    39   25   26 2
    40   25   41 1
    41   27   28 1
    42   27   29 1
    43   27   30 1
@<TRIPOS>MOLECULE
ZINC36048910
   49    51     0     0     0
SMALL
USER_CHARGES

@<TRIPOS>ATOM
      1 C1          0.6475    0.4960    1.8579 C.3       1 <0>        -0.1506
      2 C2          0.4392   -0.9775    1.5024 C.3       1 <0>         0.0672
      3 O1         -0.9587   -1.2424    1.3692 O.3       1 <0>        -0.3535
      4 C3         -1.3218   -2.5249    1.1560 C.2       1 <0>         0.5368
      5 O2         -0.4831   -3.4065    1.1777 O.2       1 <0>        -0.5647
      6 C4         -2.6756   -2.8439    0.9076 C.2       1 <0>        -0.4100
      7 C5         -3.0459   -4.1042    0.5409 C.2       1 <0>         0.2904
      8 N1         -4.3218   -4.3986    0.3083 N.2       1 <0>        -0.6075
      9 C6         -5.3100   -3.5517    0.4019 C.2       1 <0>         0.2877
     10 N2         -5.1525   -2.2355    0.7564 N.pl3     1 <0>        -0.5009
     11 C7         -3.7619   -1.7996    1.0458 C.3       1 <0>         0.2698
     12 H1         -3.5243   -0.9759    0.3727 H         1 <0>         0.0642
     13 C8         -3.7198   -1.2687    2.4556 C.ar      1 <0>        -0.0578
     14 C9         -3.2108   -0.0072    2.7025 C.ar      1 <0>        -0.0717
     15 C10        -3.1700    0.4844    3.9939 C.ar      1 <0>        -0.1717
     16 C11        -3.6402   -0.2874    5.0442 C.ar      1 <0>         0.0886
     17 C12        -4.1530   -1.5569    4.7956 C.ar      1 <0>         0.0907
     18 C13        -4.1954   -2.0418    3.4982 C.ar      1 <0>        -0.1352
     19 O3         -4.6157   -2.3182    5.8231 O.3       1 <0>        -0.3126
     20 C14        -5.0287   -3.6497    5.5092 C.3       1 <0>         0.0295
     21 O4         -3.6004    0.1946    6.3153 O.3       1 <0>        -0.3127
     22 C15        -3.0604    1.5053    6.4955 C.3       1 <0>         0.0299
     23 C16        -6.2951   -1.4854    0.8068 C.2       1 <0>         0.2208
     24 C17        -7.5519   -2.1639    0.4791 C.2       1 <0>        -0.5035
     25 S1         -7.0595   -3.7338    0.1400 S.3       1 <0>         0.1798
     26 C18        -6.2658   -0.1508    1.1507 C.2       1 <0>        -0.4331
     27 C19        -7.4767    0.5552    1.3529 C.2       1 <0>         0.4946
     28 O5         -8.6394   -0.0993    1.3469 O.co2     1 <0>        -0.7460
     29 O6         -7.4549    1.8747    1.5493 O.co2     1 <0>        -0.7855
     30 C20        -1.9966   -5.1762    0.3971 C.3       1 <0>        -0.0978
     31 H2          1.7055    0.6783    2.0462 H         1 <0>         0.0664
     32 H3          0.3130    1.1204    1.0295 H         1 <0>         0.0624
     33 H4          0.0723    0.7390    2.7514 H         1 <0>         0.0659
     34 H5          0.9423   -1.1988    0.5611 H         1 <0>         0.0527
     35 H6          0.8541   -1.6039    2.2921 H         1 <0>         0.0561
     36 H7         -2.8439    0.5954    1.8848 H         1 <0>         0.1223
     37 H8         -2.7712    1.4699    4.1842 H         1 <0>         0.1272
     38 H9         -4.5963   -3.0252    3.3021 H         1 <0>         0.1216
     39 H10        -5.7825   -3.6203    4.7225 H         1 <0>         0.0559
     40 H11        -4.1689   -4.2257    5.1672 H         1 <0>         0.0479
     41 H12        -5.4498   -4.1187    6.3985 H         1 <0>         0.0922
     42 H13        -3.0872    1.7670    7.5532 H         1 <0>         0.0899
     43 H14        -2.0295    1.5253    6.1422 H         1 <0>         0.0475
     44 H15        -3.6528    2.2234    5.9284 H         1 <0>         0.0542
     45 H16        -8.5511   -1.7546    0.4603 H         1 <0>         0.2102
     46 H17        -5.3193    0.3565    1.2660 H         1 <0>         0.0714
     47 H18        -1.7877   -5.6135    1.3734 H         1 <0>         0.0711
     48 H19        -2.3591   -5.9512   -0.2782 H         1 <0>         0.0552
     49 H20        -1.0839   -4.7392   -0.0080 H         1 <0>         0.0944
@<TRIPOS>BOND
     1    1    2 1
     2    1   31 1
     3    1   32 1
     4    1   33 1
     5    2    3 1
     6    2   34 1
     7    2   35 1
     8    3    4 1
     9    4    5 2
    10    4    6 1
    11    6   11 1
    12    6    7 2
    13    7    8 1
    14    7   30 1
    15    8    9 2
    16    9   25 1
    17    9   10 1
    18   10   11 1
    19   10   23 1
    20   11   12 1
    21   11   13 1
    22   13   18 ar
    23   13   14 ar
    24   14   15 ar
    25   14   36 1
    26   15   16 ar
    27   15   37 1
    28   16   17 ar
    29   16   21 1
    30   17   18 ar
    31   17   19 1
    32   18   38 1
    33   19   20 1
    34   20   39 1
    35   20   40 1
    36   20   41 1
    37   21   22 1
    38   22   42 1
    39   22   43 1
    40   22   44 1
    41   23   24 2
    42   23   26 1
    43   24   25 1
    44   24   45 1
    45   26   27 2
    46   26   46 1
    47   27   28 1
    48   27   29 1
    49   30   47 1
    50   30   48 1
    51   30   49 1
@<TRIPOS>MOLECULE
ZINC39704353
   52    55     0     0     0
SMALL
USER_CHARGES

@<TRIPOS>ATOM
      1 C1         -0.0700    1.4723    0.0089 C.3       1 <0>        -0.1670
      2 C2         -0.0042   -0.0561   -0.0130 C.3       1 <0>         0.1580
      3 H1         -1.0123   -0.4704   -0.0024 H         1 <0>         0.0877
      4 C3          0.7269   -0.5195   -1.2453 C.2       1 <0>        -0.0725
      5 C4          1.8074   -1.2098   -0.8928 C.2       1 <0>        -0.1931
      6 C5          1.9017   -1.2736    0.6089 C.3       1 <0>         0.1784
      7 H2          2.8285   -0.8067    0.9422 H         1 <0>         0.0916
      8 N1          0.7470   -0.5404    1.1527 N.pl3     1 <0>        -0.6220
      9 C6          0.4294   -0.3430    2.5010 C.ar      1 <0>         0.2672
     10 C7          1.2513   -0.8642    3.4916 C.ar      1 <0>        -0.1856
     11 C8          0.9388   -0.6699    4.8236 C.ar      1 <0>        -0.0441
     12 C9         -0.1945    0.0453    5.1747 C.ar      1 <0>        -0.0355
     13 C10        -1.0206    0.5697    4.1837 C.ar      1 <0>         0.0793
     14 C11        -0.7042    0.3788    2.8488 C.ar      1 <0>        -0.1831
     15 O1         -2.0588    1.2237    4.7818 O.3       1 <0>        -0.3128
     16 C12        -2.0825    0.7471    6.1403 C.3       1 <0>         0.2151
     17 O2         -0.7160    0.3714    6.3947 O.3       1 <0>        -0.3118
     18 C13         1.8582   -2.7314    1.0713 C.3       1 <0>        -0.1765
     19 C14         2.7603   -1.8150   -1.8227 C.2       1 <0>         0.4306
     20 O3          2.5411   -1.7930   -3.0158 O.2       1 <0>        -0.4302
     21 C15         4.0145   -2.4659   -1.2989 C.3       1 <0>        -0.1679
     22 S1          5.0633   -2.9660   -2.6920 S.3       1 <0>         0.0022
     23 C16         6.4695   -3.7001   -1.9249 C.ar      1 <0>         0.2537
     24 N2          7.4511   -4.1815   -2.6778 N.ar      1 <0>        -0.5771
     25 C17         8.5090   -4.7339   -2.0939 C.ar      1 <0>         0.4210
     26 O4          9.5263   -5.2333   -2.8371 O.3       1 <0>        -0.6591
     27 C18         8.5520   -4.7894   -0.7002 C.ar      1 <0>        -0.0384
     28 N3          7.5458   -4.2942   -0.0043 N.ar      1 <0>        -0.2052
     29 N4          6.5377   -3.7606   -0.6005 N.ar      1 <0>        -0.4085
     30 C19         9.7332   -5.4080    0.0021 C.3       1 <0>        -0.0105
     31 C20        10.7875   -4.3323    0.2707 C.3       1 <0>        -0.1651
     32 C21        11.9687   -4.9509    0.9730 C.2       1 <0>         0.4975
     33 O5         11.9674   -6.1418    1.2344 O.co2     1 <0>        -0.7014
     34 O6         12.9257   -4.2605    1.2797 O.co2     1 <0>        -0.7188
     35 H3          0.9407    1.8799   -0.0144 H         1 <0>         0.0657
     36 H4         -0.6239    1.8247   -0.8612 H         1 <0>         0.0699
     37 H5         -0.5735    1.8014    0.9179 H         1 <0>         0.0698
     38 H6          0.4199   -0.3216   -2.2617 H         1 <0>         0.1604
     39 H7          2.1354   -1.4222    3.2207 H         1 <0>         0.1451
     40 H8          1.5791   -1.0768    5.5923 H         1 <0>         0.1373
     41 H9         -1.3413    0.7881    2.0787 H         1 <0>         0.1356
     42 H10        -2.3943    1.5407    6.8192 H         1 <0>         0.1262
     43 H11        -2.7406   -0.1170    6.2315 H         1 <0>         0.0794
     44 H12         2.7565   -3.2472    0.7318 H         1 <0>         0.0822
     45 H13         1.8088   -2.7660    2.1596 H         1 <0>         0.0732
     46 H14         0.9785   -3.2196    0.6519 H         1 <0>         0.0615
     47 H15         4.5566   -1.7580   -0.6719 H         1 <0>         0.1243
     48 H16         3.7495   -3.3440   -0.7101 H         1 <0>         0.1289
     49 H17         9.4075   -5.8417    0.9476 H         1 <0>         0.0616
     50 H18        10.1621   -6.1882   -0.6268 H         1 <0>         0.0768
     51 H19        11.1132   -3.8987   -0.6748 H         1 <0>         0.0560
     52 H20        10.3586   -3.5522    0.8996 H         1 <0>         0.0498
@<TRIPOS>BOND
     1    1    2 1
     2    1   35 1
     3    1   36 1
     4    1   37 1
     5    2    3 1
     6    2    8 1
     7    2    4 1
     8    4    5 2
     9    4   38 1
    10    5    6 1
    11    5   19 1
    12    6    7 1
    13    6    8 1
    14    6   18 1
    15    8    9 1
    16    9   14 ar
    17    9   10 ar
    18   10   11 ar
    19   10   39 1
    20   11   12 ar
    21   11   40 1
    22   12   17 1
    23   12   13 ar
    24   13   14 ar
    25   13   15 1
    26   14   41 1
    27   15   16 1
    28   16   17 1
    29   16   42 1
    30   16   43 1
    31   18   44 1
    32   18   45 1
    33   18   46 1
    34   19   20 2
    35   19   21 1
    36   21   22 1
    37   21   47 1
    38   21   48 1
    39   22   23 1
    40   23   24 ar
    41   23   29 ar
    42   24   25 ar
    43   25   26 1
    44   25   27 ar
    45   27   28 ar
    46   27   30 1
    47   28   29 ar
    48   30   31 1
    49   30   49 1
    50   30   50 1
    51   31   32 1
    52   31   51 1
    53   31   52 1
    54   32   33 2
    55   32   34 1
@<TRIPOS>MOLECULE
ZINC13217526
   60    64     0     0     0
SMALL
USER_CHARGES

@<TRIPOS>ATOM
      1 C1         -0.3244    2.6697   -1.3345 C.3       1 <0>        -0.1417
      2 C2         -0.0703    1.1632   -1.4166 C.3       1 <0>        -0.0525
      3 C3          1.0451    0.7803   -0.4418 C.3       1 <0>        -0.1422
      4 C4         -1.3307    0.4207   -1.0546 C.ar      1 <0>        -0.0891
      5 C5         -1.9052    0.5998    0.1899 C.ar      1 <0>        -0.1158
      6 C6         -3.0613   -0.0813    0.5220 C.ar      1 <0>        -0.1134
      7 C7         -3.6432   -0.9412   -0.3906 C.ar      1 <0>        -0.0677
      8 C8         -3.0693   -1.1196   -1.6354 C.ar      1 <0>        -0.0812
      9 C9         -1.9155   -0.4352   -1.9691 C.ar      1 <0>        -0.1162
     10 C10        -4.9031   -1.6845   -0.0282 C.3       1 <0>         0.2566
     11 H1         -5.0574   -1.6563    1.0505 H         1 <0>         0.0759
     12 C11        -6.0888   -1.0745   -0.7387 C.2       1 <0>        -0.4991
     13 C12        -6.6136   -2.0436   -1.5250 C.2       1 <0>         0.2718
     14 C13        -5.8213   -3.2801   -1.3658 C.2       1 <0>         0.5066
     15 O1         -6.0412   -4.3280   -1.9404 O.2       1 <0>        -0.5150
     16 N1         -4.8191   -3.0751   -0.4898 N.am      1 <0>        -0.5452
     17 C14        -3.8677   -4.0180   -0.0911 C.ar      1 <0>         0.1618
     18 C15        -2.8866   -3.6708    0.8291 C.ar      1 <0>        -0.1504
     19 C16        -1.9483   -4.6051    1.2213 C.ar      1 <0>        -0.0914
     20 C17        -1.9843   -5.8849    0.6986 C.ar      1 <0>        -0.0524
     21 C18        -2.9595   -6.2339   -0.2177 C.ar      1 <0>        -0.0913
     22 C19        -3.9043   -5.3062   -0.6099 C.ar      1 <0>        -0.1544
     23 C20        -0.9580   -6.9015    1.1282 C.3       1 <0>        -0.1505
     24 C21        -1.4664   -7.6501    2.3333 C.2       1 <0>         0.4958
     25 O2         -2.5606   -7.3829    2.8000 O.co2     1 <0>        -0.6835
     26 O3         -0.7834   -8.5229    2.8415 O.co2     1 <0>        -0.7132
     27 O4         -7.6931   -1.9023   -2.3285 O.3       1 <0>        -0.6515
     28 C22        -6.5770    0.3010   -0.6026 C.2       1 <0>         0.5107
     29 O5         -6.5513    1.0533   -1.5590 O.2       1 <0>        -0.4708
     30 C23        -7.0998    0.7737    0.6944 C.ar      1 <0>        -0.1249
     31 C24        -7.2322   -0.1175    1.7634 C.ar      1 <0>        -0.0509
     32 C25        -7.7201    0.3255    2.9727 C.ar      1 <0>        -0.1124
     33 C26        -8.0825    1.6566    3.1352 C.ar      1 <0>         0.0420
     34 C27        -7.9529    2.5516    2.0716 C.ar      1 <0>         0.0094
     35 C28        -7.4585    2.1149    0.8586 C.ar      1 <0>        -0.0537
     36 O6         -8.3723    3.7832    2.4857 O.3       1 <0>        -0.3113
     37 C29        -9.1407    3.5452    3.6799 C.3       1 <0>         0.2131
     38 O7         -8.5815    2.3295    4.2110 O.3       1 <0>        -0.3107
     39 H2          0.5872    3.2068   -1.5963 H         1 <0>         0.0507
     40 H3         -1.1190    2.9426   -2.0289 H         1 <0>         0.0555
     41 H4         -0.6225    2.9331   -0.3196 H         1 <0>         0.0555
     42 H5          0.2278    0.8999   -2.4314 H         1 <0>         0.0720
     43 H6          1.2262   -0.2929   -0.5003 H         1 <0>         0.0571
     44 H7          1.9567    1.3174   -0.7036 H         1 <0>         0.0506
     45 H8          0.7470    1.0437    0.5730 H         1 <0>         0.0558
     46 H9         -1.4505    1.2716    0.9029 H         1 <0>         0.1138
     47 H10        -3.5097    0.0581    1.4946 H         1 <0>         0.1182
     48 H11        -3.5237   -1.7917   -2.3483 H         1 <0>         0.1143
     49 H12        -1.4691   -0.5718   -2.9430 H         1 <0>         0.1134
     50 H13        -2.8576   -2.6712    1.2371 H         1 <0>         0.1170
     51 H14        -1.1854   -4.3358    1.9367 H         1 <0>         0.1121
     52 H15        -2.9847   -7.2343   -0.6239 H         1 <0>         0.1131
     53 H16        -4.6684   -5.5807   -1.3221 H         1 <0>         0.1439
     54 H17        -0.7786   -7.6032    0.3136 H         1 <0>         0.0639
     55 H18        -0.0275   -6.3936    1.3818 H         1 <0>         0.0636
     56 H19        -6.9522   -1.1533    1.6408 H         1 <0>         0.1526
     57 H20        -7.8216   -0.3645    3.7974 H         1 <0>         0.1384
     58 H21        -7.3531    2.8074    0.0366 H         1 <0>         0.1412
     59 H22        -9.0140    4.3655    4.3864 H         1 <0>         0.1262
     60 H23       -10.1941    3.4076    3.4363 H         1 <0>         0.0797
@<TRIPOS>BOND
     1    1    2 1
     2    1   39 1
     3    1   40 1
     4    1   41 1
     5    2    3 1
     6    2    4 1
     7    2   42 1
     8    3   43 1
     9    3   44 1
    10    3   45 1
    11    4    9 ar
    12    4    5 ar
    13    5    6 ar
    14    5   46 1
    15    6    7 ar
    16    6   47 1
    17    7    8 ar
    18    7   10 1
    19    8    9 ar
    20    8   48 1
    21    9   49 1
    22   10   11 1
    23   10   16 1
    24   10   12 1
    25   12   13 2
    26   12   28 1
    27   13   14 1
    28   13   27 1
    29   14   15 2
    30   14   16 am
    31   16   17 1
    32   17   22 ar
    33   17   18 ar
    34   18   19 ar
    35   18   50 1
    36   19   20 ar
    37   19   51 1
    38   20   21 ar
    39   20   23 1
    40   21   22 ar
    41   21   52 1
    42   22   53 1
    43   23   24 1
    44   23   54 1
    45   23   55 1
    46   24   25 2
    47   24   26 1
    48   28   29 2
    49   28   30 1
    50   30   35 ar
    51   30   31 ar
    52   31   32 ar
    53   31   56 1
    54   32   33 ar
    55   32   57 1
    56   33   38 1
    57   33   34 ar
    58   34   35 ar
    59   34   36 1
    60   35   58 1
    61   36   37 1
    62   37   38 1
    63   37   59 1
    64   37   60 1
@<TRIPOS>MOLECULE
ZINC45774684
   44    45     0     0     0
SMALL
USER_CHARGES

@<TRIPOS>ATOM
      1 C1         -3.1148   -2.2944   -0.8708 C.3       1 <0>        -0.1662
      2 C2         -2.3132   -1.0138   -0.6288 C.3       1 <0>         0.1151
      3 N1         -1.3298   -1.2462    0.4319 N.am      1 <0>        -0.6180
      4 C3          0.0264   -1.6825    0.0906 C.3       1 <0>         0.1005
      5 C4          0.8540   -0.4748   -0.3538 C.3       1 <0>        -0.1742
      6 C5         -1.6728   -1.0588    1.7217 C.2       1 <0>         0.5801
      7 O1         -2.8137   -0.7513    2.0089 O.2       1 <0>        -0.5595
      8 C6         -0.6642   -1.2266    2.7851 C.ar      1 <0>        -0.2655
      9 C7          0.6092   -0.6690    2.6370 C.ar      1 <0>        -0.0555
     10 C8          1.5477   -0.8269    3.6309 C.ar      1 <0>        -0.1920
     11 C9          1.2304   -1.5414    4.7828 C.ar      1 <0>         0.3102
     12 C10        -0.0367   -2.0983    4.9331 C.ar      1 <0>        -0.2783
     13 C11        -0.9816   -1.9386    3.9455 C.ar      1 <0>        -0.0042
     14 N2          2.1810   -1.6996    5.7851 N.2       1 <0>        -1.0789
     15 S1          1.8054   -2.5491    7.1560 S.o2      1 <0>         2.6539
     16 O2          0.8099   -1.7992    7.8385 O.2       1 <0>        -1.0257
     17 O3          1.6026   -3.8974    6.7555 O.2       1 <0>        -1.0239
     18 C12         3.2366   -2.5389    8.1838 C.2       1 <0>        -0.7874
     19 C13         3.5701   -1.6347    9.1397 C.2       1 <0>        -0.0497
     20 C14         4.7385   -1.8032    9.8394 C.2       1 <0>        -0.1366
     21 C15         5.4933   -2.9174    9.4931 C.2       1 <0>        -0.1787
     22 S2          4.4964   -3.6500    8.2095 S.3       1 <0>         0.2819
     23 C16         6.7309   -3.3591   10.0252 C.2       1 <0>         0.5540
     24 O4          7.2753   -2.7225   10.9191 O.co2     1 <0>        -0.6703
     25 O5          7.2558   -4.3772    9.5912 O.co2     1 <0>        -0.6830
     26 C17         5.1753   -0.8412   10.9140 C.3       1 <0>        -0.0828
     27 H1         -3.8464   -2.1214   -1.6600 H         1 <0>         0.0576
     28 H2         -2.4387   -3.0948   -1.1712 H         1 <0>         0.0528
     29 H3         -3.6302   -2.5792    0.0465 H         1 <0>         0.0603
     30 H4         -1.7978   -0.7290   -1.5461 H         1 <0>         0.0688
     31 H5         -2.9893   -0.2133   -0.3284 H         1 <0>         0.0759
     32 H6          0.4914   -2.1401    0.9637 H         1 <0>         0.1000
     33 H7         -0.0191   -2.4099   -0.7200 H         1 <0>         0.0666
     34 H8          0.6040    0.3853    0.2673 H         1 <0>         0.0672
     35 H9          1.9147   -0.7027   -0.2489 H         1 <0>         0.0695
     36 H10         0.6327   -0.2465   -1.3964 H         1 <0>         0.0498
     37 H11         0.8562   -0.1153    1.7432 H         1 <0>         0.1200
     38 H12         2.5316   -0.3964    3.5170 H         1 <0>         0.1171
     39 H13        -0.2798   -2.6523    5.8277 H         1 <0>         0.1018
     40 H14        -1.9659   -2.3668    4.0648 H         1 <0>         0.1058
     41 H15         2.9248   -0.7937    9.3465 H         1 <0>         0.1282
     42 H16         4.7794   -1.1669   11.8759 H         1 <0>         0.0561
     43 H17         6.2641   -0.8166   10.9589 H         1 <0>         0.0908
     44 H18         4.7985    0.1555   10.6846 H         1 <0>         0.0464
@<TRIPOS>BOND
     1    1    2 1
     2    1   27 1
     3    1   28 1
     4    1   29 1
     5    2    3 1
     6    2   30 1
     7    2   31 1
     8    3    4 1
     9    3    6 am
    10    4    5 1
    11    4   32 1
    12    4   33 1
    13    5   34 1
    14    5   35 1
    15    5   36 1
    16    6    7 2
    17    6    8 1
    18    8   13 ar
    19    8    9 ar
    20    9   10 ar
    21    9   37 1
    22   10   11 ar
    23   10   38 1
    24   11   12 ar
    25   11   14 1
    26   12   13 ar
    27   12   39 1
    28   13   40 1
    29   14   15 1
    30   15   16 2
    31   15   17 2
    32   15   18 1
    33   18   22 1
    34   18   19 2
    35   19   20 1
    36   19   41 1
    37   20   21 2
    38   20   26 1
    39   21   22 1
    40   21   23 1
    41   23   24 2
    42   23   25 1
    43   26   42 1
    44   26   43 1
    45   26   44 1
@<TRIPOS>MOLECULE
ZINC04567637
   43    44     0     0     0
SMALL
USER_CHARGES
4-[5-(2-carboxyvinyl)-2,3-dimethoxy-phenyl]sulfonylaminobenzoic acid
@<TRIPOS>ATOM
      1 C1         -0.6094    5.9951   -1.6382 C.3       1 <0>         0.0245
      2 O1         -1.8695    5.3217   -1.6645 O.3       1 <0>        -0.3109
      3 C2         -1.8619    3.9870   -1.4037 C.ar      1 <0>         0.0771
      4 C3         -0.6709    3.3441   -1.1299 C.ar      1 <0>        -0.0478
      5 C4         -0.6670    1.9701   -0.8620 C.ar      1 <0>        -0.0021
      6 C5         -1.8698    1.2545   -0.8789 C.ar      1 <0>        -0.0391
      7 C6         -3.0539    1.9050   -1.1474 C.ar      1 <0>        -0.6688
      8 C7         -3.0567    3.2680   -1.4134 C.ar      1 <0>         0.1596
      9 O2         -4.2266    3.9027   -1.6835 O.3       1 <0>        -0.3305
     10 C8         -4.6301    3.9645   -3.0530 C.3       1 <0>         0.0208
     11 S1         -4.5680    1.0040   -1.1610 S.o2      1 <0>         2.7038
     12 O3         -5.2309    1.3421   -2.3716 O.2       1 <0>        -0.9665
     13 O4         -4.2458   -0.3368   -0.8177 O.2       1 <0>        -0.9558
     14 N1         -5.5017    1.5969    0.0715 N.pl3     1 <0>        -1.0416
     15 C9         -5.0592    1.5027    1.3859 C.ar      1 <0>         0.1299
     16 C10        -4.5228    0.3062    1.8542 C.ar      1 <0>        -0.1660
     17 C11        -4.0810    0.2114    3.1487 C.ar      1 <0>        -0.0573
     18 C12        -4.1793    1.3151    4.0021 C.ar      1 <0>        -0.1156
     19 C13        -4.7235    2.5138    3.5299 C.ar      1 <0>        -0.0695
     20 C14        -5.1586    2.6034    2.2328 C.ar      1 <0>        -0.1361
     21 C15        -3.7102    1.2153    5.3957 C.2       1 <0>         0.4928
     22 O5         -3.7959    2.1752    6.1358 O.co2     1 <0>        -0.6348
     23 C16         0.5971    1.2799   -0.5698 C.2       1 <0>        -0.1227
     24 C17         1.4730    1.8172    0.3073 C.2       1 <0>        -0.1455
     25 C18         1.0808    2.9093    1.1218 C.2       1 <0>         0.4600
     26 O6         -0.0782    3.2787    1.1272 O.co2     1 <0>        -0.6094
     27 H1          0.0533    5.5550   -2.3833 H         1 <0>         0.0473
     28 H2         -0.7573    7.0515   -1.8623 H         1 <0>         0.0942
     29 H3         -0.1632    5.8925   -0.6491 H         1 <0>         0.0662
     30 H4          0.2551    3.8998   -1.1228 H         1 <0>         0.1318
     31 H5         -1.8701    0.1935   -0.6771 H         1 <0>         0.1427
     32 H6         -5.5784    4.4966   -3.1287 H         1 <0>         0.0881
     33 H7         -3.8711    4.4905   -3.6320 H         1 <0>         0.0396
     34 H8         -4.7486    2.9535   -3.4428 H         1 <0>         0.0804
     35 H9         -6.3574    2.0098   -0.1238 H         1 <0>         0.4200
     36 H10        -4.4510   -0.5470    1.1959 H         1 <0>         0.1466
     37 H11        -3.6609   -0.7156    3.5101 H         1 <0>         0.1344
     38 H12        -4.8005    3.3681    4.1862 H         1 <0>         0.1287
     39 H13        -5.5785    3.5289    1.8675 H         1 <0>         0.1206
     40 H14         0.8279    0.3455   -1.0597 H         1 <0>         0.1223
     41 H15         2.4719    1.4146    0.3881 H         1 <0>         0.1114
     42 O7         -3.1861    0.0595    5.8491 O.co2     1 <0>        -0.7584
     43 O8          1.9932    3.5391    1.8910 O.co2     1 <0>        -0.7646
@<TRIPOS>BOND
     1    1    2 1
     2    1   27 1
     3    1   28 1
     4    1   29 1
     5    2    3 1
     6    3    8 ar
     7    3    4 ar
     8    4    5 ar
     9    4   30 1
    10    5    6 ar
    11    5   23 1
    12    6    7 ar
    13    6   31 1
    14    7    8 ar
    15    7   11 1
    16    8    9 1
    17    9   10 1
    18   10   32 1
    19   10   33 1
    20   10   34 1
    21   11   12 2
    22   11   13 2
    23   11   14 1
    24   14   15 1
    25   14   35 1
    26   15   20 ar
    27   15   16 ar
    28   16   17 ar
    29   16   36 1
    30   17   18 ar
    31   17   37 1
    32   18   19 ar
    33   18   21 1
    34   19   20 ar
    35   19   38 1
    36   20   39 1
    37   21   22 2
    38   21   42 1
    39   23   24 2
    40   23   40 1
    41   24   25 1
    42   24   41 1
    43   25   26 2
    44   25   43 1
@<TRIPOS>MOLECULE
ZINC13274492
   45    47     0     0     0
SMALL
USER_CHARGES
4-fluoro-2-[[2-[3-[(1R)-2-hydroxy-1-methyl-2-oxo-ethyl]-4-oxo-quinazolin-2-yl]sulfanylacetyl]amino]benzoic acid
@<TRIPOS>ATOM
      1 C1          0.6767   -4.7590    1.2728 C.3       1 <0>        -0.1430
      2 C2         -0.0220   -4.2016    0.0310 C.3       1 <0>         0.0729
      3 H1         -1.0636   -4.5228    0.0253 H         1 <0>         0.1048
      4 C3          0.6685   -4.7142   -1.2065 C.2       1 <0>         0.4725
      5 O1          1.1600   -3.9366   -1.9900 O.co2     1 <0>        -0.6130
      6 N1          0.0376   -2.7380    0.0528 N.am      1 <0>        -0.4987
      7 C4          1.2387   -2.1144    0.0631 C.2       1 <0>         0.5610
      8 O2          2.2788   -2.7469    0.0551 O.2       1 <0>        -0.4866
      9 C5          1.2402   -0.6454    0.0849 C.ar      1 <0>        -0.2001
     10 C6          2.4245    0.0901    0.0973 C.ar      1 <0>        -0.0358
     11 C7          2.3689    1.4564    0.1179 C.ar      1 <0>        -0.1595
     12 C8          1.1471    2.1171    0.1266 C.ar      1 <0>        -0.0786
     13 C9         -0.0286    1.4212    0.1148 C.ar      1 <0>        -0.1211
     14 C10        -0.0051    0.0234    0.0936 C.ar      1 <0>         0.1807
     15 N2         -1.1413   -0.7023    0.0818 N.2       1 <0>        -0.5540
     16 C11        -1.1193   -2.0122    0.0629 C.2       1 <0>         0.3707
     17 S1         -2.6539   -2.8778    0.0487 S.3       1 <0>         0.0799
     18 C12        -3.8035   -1.4799    0.0690 C.3       1 <0>        -0.1495
     19 C13        -5.2200   -1.9942    0.0602 C.2       1 <0>         0.5312
     20 O3         -5.4315   -3.1882    0.0419 O.2       1 <0>        -0.5205
     21 N3         -6.2518   -1.1271    0.0726 N.am      1 <0>        -0.6369
     22 C14        -7.5584   -1.5982   -0.0290 C.ar      1 <0>         0.2049
     23 C15        -7.9118   -2.8044    0.5580 C.ar      1 <0>        -0.1745
     24 C16        -9.2113   -3.2679    0.4598 C.ar      1 <0>         0.1085
     25 C17       -10.1669   -2.5369   -0.2339 C.ar      1 <0>        -0.1874
     26 C18        -9.8312   -1.3406   -0.8266 C.ar      1 <0>        -0.0340
     27 C19        -8.5226   -0.8574   -0.7309 C.ar      1 <0>        -0.1522
     28 C20        -8.1579    0.4219   -1.3624 C.2       1 <0>         0.4970
     29 O4         -7.0003    0.7918   -1.3616 O.co2     1 <0>        -0.6272
     30 F1         -9.5518   -4.4405    1.0380 F         1 <0>        -0.1457
     31 H2          1.7183   -4.4378    1.2785 H         1 <0>         0.0730
     32 H3          0.1773   -4.3882    2.1679 H         1 <0>         0.0473
     33 H4          0.6324   -5.8479    1.2566 H         1 <0>         0.0827
     34 H5          3.3788   -0.4155    0.0910 H         1 <0>         0.1316
     35 H6          3.2852    2.0280    0.1272 H         1 <0>         0.1235
     36 H7          1.1262    3.1967    0.1426 H         1 <0>         0.1255
     37 H8         -0.9713    1.9482    0.1172 H         1 <0>         0.1355
     38 H9         -3.6380   -0.8864    0.9682 H         1 <0>         0.1298
     39 H10        -3.6367   -0.8595   -0.8115 H         1 <0>         0.1360
     40 H11        -6.0843   -0.1750    0.1522 H         1 <0>         0.4292
     41 H12        -7.1727   -3.3801    1.0952 H         1 <0>         0.1492
     42 H13       -11.1780   -2.9088   -0.3091 H         1 <0>         0.1292
     43 H14       -10.5778   -0.7760   -1.3652 H         1 <0>         0.1435
     44 O5          0.7375   -6.0344   -1.4384 O.co2     1 <0>        -0.7538
     45 O6         -9.1079    1.1826   -1.9414 O.co2     1 <0>        -0.7483
@<TRIPOS>BOND
     1    1    2 1
     2    1   31 1
     3    1   32 1
     4    1   33 1
     5    2    3 1
     6    2    4 1
     7    2    6 1
     8    4    5 2
     9    4   44 1
    10    6   16 1
    11    6    7 am
    12    7    8 2
    13    7    9 1
    14    9   14 ar
    15    9   10 ar
    16   10   11 ar
    17   10   34 1
    18   11   12 ar
    19   11   35 1
    20   12   13 ar
    21   12   36 1
    22   13   14 ar
    23   13   37 1
    24   14   15 1
    25   15   16 2
    26   16   17 1
    27   17   18 1
    28   18   19 1
    29   18   38 1
    30   18   39 1
    31   19   20 2
    32   19   21 am
    33   21   22 1
    34   21   40 1
    35   22   27 ar
    36   22   23 ar
    37   23   24 ar
    38   23   41 1
    39   24   25 ar
    40   24   30 1
    41   25   26 ar
    42   25   42 1
    43   26   27 ar
    44   26   43 1
    45   27   28 1
    46   28   29 2
    47   28   45 1
@<TRIPOS>MOLECULE
ZINC16928193
   50    52     0     0     0
SMALL
USER_CHARGES
4-[[(5Z)-3-ethyl-5-[[4-[(1S)-2-hydroxy-1-methyl-2-oxo-ethoxy]phenyl]methylene]-4-oxo-thiazolidin-2-ylidene]amino]-2-hydroxy-benzoic acid
@<TRIPOS>ATOM
      1 C1         -1.8830   -3.1533    6.2074 C.3       1 <0>        -0.1644
      2 C2         -0.9402   -4.0056    5.3556 C.3       1 <0>         0.1009
      3 N1         -1.5890   -4.3271    4.0821 N.am      1 <0>        -0.5393
      4 C3         -2.3197   -5.4243    3.9788 C.2       1 <0>         0.5641
      5 O1         -2.4690   -6.1805    4.9207 O.2       1 <0>        -0.5033
      6 C4         -2.9453   -5.6903    2.6694 C.2       1 <0>        -0.2476
      7 C5         -3.7349   -6.7261    2.2863 C.2       1 <0>         0.0839
      8 C6         -4.4123   -6.6904    0.9840 C.ar      1 <0>        -0.1584
      9 C7         -4.3967   -5.5197    0.2157 C.ar      1 <0>        -0.0363
     10 C8         -5.0294   -5.4933   -1.0067 C.ar      1 <0>        -0.2169
     11 C9         -5.6923   -6.6224   -1.4737 C.ar      1 <0>         0.1786
     12 C10        -5.7150   -7.7857   -0.7130 C.ar      1 <0>        -0.1690
     13 C11        -5.0812   -7.8251    0.5084 C.ar      1 <0>        -0.0385
     14 O2         -6.3194   -6.5891   -2.6775 O.3       1 <0>        -0.2778
     15 C12        -6.3606   -5.3305   -3.3529 C.3       1 <0>         0.0315
     16 H1         -6.3833   -4.5249   -2.6190 H         1 <0>         0.0805
     17 C13        -5.1180   -5.1834   -4.2334 C.3       1 <0>        -0.1555
     18 C14        -7.5964   -5.2619   -4.2126 C.2       1 <0>         0.4744
     19 O3         -8.3632   -6.1951   -4.2437 O.co2     1 <0>        -0.6197
     20 S1         -2.3899   -4.2782    1.7256 S.3       1 <0>        -0.0070
     21 C15        -1.4313   -3.4843    3.0057 C.2       1 <0>         0.3635
     22 N2         -0.7452   -2.3624    2.9380 N.2       1 <0>        -0.4557
     23 C16        -0.7056   -1.6572    1.7726 C.ar      1 <0>         0.0971
     24 C17        -0.4910   -2.3237    0.5579 C.ar      1 <0>        -0.1682
     25 C18        -0.4502   -1.6252   -0.6107 C.ar      1 <0>        -0.0445
     26 C19        -0.6285   -0.2353   -0.6073 C.ar      1 <0>        -0.1338
     27 C20        -0.8380    0.4416    0.6069 C.ar      1 <0>         0.1472
     28 C21        -0.8787   -0.2702    1.7898 C.ar      1 <0>        -0.1397
     29 O4         -1.0051    1.7879    0.6161 O.3       1 <0>        -0.4721
     30 C22        -0.5900    0.5143   -1.8701 C.2       1 <0>         0.4874
     31 O5         -0.7394    1.7208   -1.8656 O.co2     1 <0>        -0.6164
     32 H2         -2.1184   -2.2309    5.6766 H         1 <0>         0.0639
     33 H3         -2.8020   -3.7077    6.3977 H         1 <0>         0.0583
     34 H4         -1.4002   -2.9141    7.1550 H         1 <0>         0.0719
     35 H5         -0.7048   -4.9280    5.8865 H         1 <0>         0.0910
     36 H6         -0.0212   -3.4512    5.1654 H         1 <0>         0.0966
     37 H7         -3.8647   -7.5764    2.9394 H         1 <0>         0.1528
     38 H8         -3.8862   -4.6404    0.5797 H         1 <0>         0.1338
     39 H9         -5.0146   -4.5923   -1.6020 H         1 <0>         0.1421
     40 H10        -6.2312   -8.6602   -1.0808 H         1 <0>         0.1364
     41 H11        -5.0995   -8.7294    1.0986 H         1 <0>         0.1338
     42 H12        -5.0952   -5.9890   -4.9673 H         1 <0>         0.0595
     43 H13        -5.1493   -4.2233   -4.7486 H         1 <0>         0.0839
     44 H14        -4.2241   -5.2330   -3.6116 H         1 <0>         0.0530
     45 H15        -0.3570   -3.3954    0.5488 H         1 <0>         0.1258
     46 H16        -0.2845   -2.1445   -1.5430 H         1 <0>         0.1403
     47 H17        -1.0440    0.2433    2.7254 H         1 <0>         0.1287
     48 H18        -0.1818    2.2857    0.7134 H         1 <0>         0.3847
     49 O6         -7.8452   -4.1641   -4.9438 O.co2     1 <0>        -0.7476
     50 O7         -0.3890   -0.1358   -3.0341 O.co2     1 <0>        -0.7534
@<TRIPOS>BOND
     1    1    2 1
     2    1   32 1
     3    1   33 1
     4    1   34 1
     5    2    3 1
     6    2   35 1
     7    2   36 1
     8    3   21 1
     9    3    4 am
    10    4    5 2
    11    4    6 1
    12    6    7 2
    13    6   20 1
    14    7    8 1
    15    7   37 1
    16    8   13 ar
    17    8    9 ar
    18    9   10 ar
    19    9   38 1
    20   10   11 ar
    21   10   39 1
    22   11   12 ar
    23   11   14 1
    24   12   13 ar
    25   12   40 1
    26   13   41 1
    27   14   15 1
    28   15   16 1
    29   15   17 1
    30   15   18 1
    31   17   42 1
    32   17   43 1
    33   17   44 1
    34   18   19 2
    35   18   49 1
    36   20   21 1
    37   21   22 2
    38   22   23 1
    39   23   28 ar
    40   23   24 ar
    41   24   25 ar
    42   24   45 1
    43   25   26 ar
    44   25   46 1
    45   26   27 ar
    46   26   30 1
    47   27   28 ar
    48   27   29 1
    49   28   47 1
    50   29   48 1
    51   30   31 2
    52   30   50 1
@<TRIPOS>MOLECULE
ZINC39558436
   46    48     0     0     0
SMALL
USER_CHARGES

@<TRIPOS>ATOM
      1 C1          0.0381    1.3835    0.0047 C.ar      1 <0>        -0.0631
      2 C2          1.2289    2.0865   -0.0096 C.ar      1 <0>        -0.2223
      3 C3          2.4347    1.4101   -0.0304 C.ar      1 <0>        -0.0708
      4 C4          2.4532    0.0282   -0.0371 C.ar      1 <0>        -0.0948
      5 C5          1.2579   -0.6810   -0.0223 C.ar      1 <0>         0.2889
      6 C6          0.0491    0.0024   -0.0015 C.ar      1 <0>        -0.2574
      7 N1          1.2725   -2.0784   -0.0295 N.2       1 <0>        -1.0687
      8 S1         -0.1528   -2.9214   -0.0119 S.o2      1 <0>         2.6030
      9 O1         -0.7637   -2.6602    1.2442 O.2       1 <0>        -1.0279
     10 O2         -0.8017   -2.6478   -1.2462 O.2       1 <0>        -1.0271
     11 C7          0.2555   -4.6354   -0.0267 C.ar      1 <0>        -0.5950
     12 C8          0.4024   -5.2980   -1.2324 C.ar      1 <0>        -0.0307
     13 C9          0.7219   -6.6399   -1.2510 C.ar      1 <0>        -0.0842
     14 C10         0.8976   -7.3290   -0.0498 C.ar      1 <0>        -0.0915
     15 C11         0.7483   -6.6543    1.1631 C.ar      1 <0>        -0.1136
     16 C12         0.4333   -5.3113    1.1675 C.ar      1 <0>        -0.0313
     17 C13         1.2396   -8.7670   -0.0622 C.2       1 <0>         0.5498
     18 O3          1.3685   -9.3521   -1.1199 O.2       1 <0>        -0.5037
     19 N2          1.4085   -9.4295    1.0993 N.am      1 <0>        -0.6639
     20 C14         1.6362  -10.8093    1.0905 C.ar      1 <0>         0.1702
     21 C15         1.1128  -11.6071    2.1009 C.ar      1 <0>        -0.2451
     22 C16         1.3368  -12.9701    2.0929 C.ar      1 <0>        -0.0523
     23 C17         2.0816  -13.5450    1.0809 C.ar      1 <0>        -0.2765
     24 C18         2.6078  -12.7530    0.0677 C.ar      1 <0>         0.2969
     25 C19         2.3800  -11.3838    0.0701 C.ar      1 <0>        -0.1739
     26 N3          3.3605  -13.3348   -0.9549 N.2       1 <0>        -1.1045
     27 S2          3.6264  -14.9693   -0.9603 S.o2      1 <0>         2.7136
     28 O4          4.4371  -15.2526    0.1719 O.2       1 <0>        -1.0605
     29 O5          2.3626  -15.5857   -1.1657 O.2       1 <0>        -1.0594
     30 N4          4.5428  -15.3119   -2.2963 N.pl3     1 <0>        -1.2513
     31 Cl1         3.9673   -0.8207   -0.0644 Cl        1 <0>        -0.0904
     32 H1         -0.9018    1.9152    0.0251 H         1 <0>         0.1059
     33 H2          1.2170    3.1665   -0.0047 H         1 <0>         0.1080
     34 H3          3.3628    1.9622   -0.0418 H         1 <0>         0.1129
     35 H4         -0.8815   -0.5456    0.0099 H         1 <0>         0.1041
     36 H5          0.2662   -4.7636   -2.1610 H         1 <0>         0.1427
     37 H6          0.8356   -7.1562   -2.1928 H         1 <0>         0.1422
     38 H7          0.8825   -7.1818    2.0959 H         1 <0>         0.1305
     39 H8          0.3216   -4.7871    2.1051 H         1 <0>         0.1417
     40 H9          1.3721   -8.9493    1.9413 H         1 <0>         0.4039
     41 H10         0.5305  -11.1608    2.8935 H         1 <0>         0.1048
     42 H11         0.9292  -13.5878    2.8795 H         1 <0>         0.1050
     43 H12         2.2552  -14.6109    1.0776 H         1 <0>         0.0958
     44 H13         2.7841  -10.7666   -0.7187 H         1 <0>         0.1315
     45 H14         4.8140  -14.5981   -2.8946 H         1 <0>         0.4092
     46 H15         4.8085  -16.2264   -2.4807 H         1 <0>         0.3995
@<TRIPOS>BOND
     1    1    6 ar
     2    1    2 ar
     3    1   32 1
     4    2    3 ar
     5    2   33 1
     6    3    4 ar
     7    3   34 1
     8    4    5 ar
     9    4   31 1
    10    5    6 ar
    11    5    7 1
    12    6   35 1
    13    7    8 1
    14    8    9 2
    15    8   10 2
    16    8   11 1
    17   11   16 ar
    18   11   12 ar
    19   12   13 ar
    20   12   36 1
    21   13   14 ar
    22   13   37 1
    23   14   15 ar
    24   14   17 1
    25   15   16 ar
    26   15   38 1
    27   16   39 1
    28   17   18 2
    29   17   19 am
    30   19   20 1
    31   19   40 1
    32   20   25 ar
    33   20   21 ar
    34   21   22 ar
    35   21   41 1
    36   22   23 ar
    37   22   42 1
    38   23   24 ar
    39   23   43 1
    40   24   25 ar
    41   24   26 1
    42   25   44 1
    43   26   27 1
    44   27   28 2
    45   27   29 2
    46   27   30 1
    47   30   45 1
    48   30   46 1
@<TRIPOS>MOLECULE
ZINC16913287
   51    53     0     0     0
SMALL
USER_CHARGES

@<TRIPOS>ATOM
      1 C1         -1.2512    1.4556   -0.6678 C.3       1 <0>        -0.1469
      2 C2         -0.6576    0.0595   -0.4693 C.3       1 <0>        -0.0998
      3 C3          0.3023   -0.2547   -1.6186 C.3       1 <0>         0.0125
      4 H1          1.0542    0.5313   -1.6892 H         1 <0>         0.0639
      5 C4          0.9795   -1.5760   -1.3606 C.2       1 <0>         0.4796
      6 O1          0.7753   -2.5210   -2.1034 O.co2     1 <0>        -0.6674
      7 O2          1.7316   -1.7000   -0.4091 O.co2     1 <0>        -0.6988
      8 O3         -0.4291   -0.3256   -2.8442 O.3       1 <0>        -0.2831
      9 C5          0.2592   -0.0766   -3.9885 C.ar      1 <0>         0.1546
     10 C6          1.6343    0.1118   -3.9419 C.ar      1 <0>        -0.1765
     11 C7          2.3380    0.3650   -5.0985 C.ar      1 <0>        -0.0271
     12 C8          1.6664    0.4324   -6.3254 C.ar      1 <0>        -0.0856
     13 C9          0.2797    0.2418   -6.3710 C.ar      1 <0>        -0.1498
     14 C10        -0.4164   -0.0167   -5.2069 C.ar      1 <0>         0.0643
     15 O4         -1.7623   -0.2074   -5.2479 O.3       1 <0>        -0.3078
     16 C11        -2.3894   -0.1322   -6.5297 C.3       1 <0>         0.0305
     17 C12         2.4135    0.7027   -7.5601 C.2       1 <0>         0.0013
     18 C13         3.6189    0.1139   -7.7665 C.2       1 <0>        -0.1965
     19 C14         4.3008   -0.9495   -6.9923 C.2       1 <0>         0.5195
     20 O5          3.7957   -1.4472   -5.9986 O.2       1 <0>        -0.5016
     21 N1          5.4795   -1.3281   -7.4346 N.2       1 <0>        -0.7113
     22 C15         6.0382   -0.7970   -8.5109 C.2       1 <0>         0.4514
     23 S1          4.8273    0.3982   -9.0539 S.3       1 <0>        -0.1533
     24 N2          7.2504   -1.0964   -9.0754 N.2       1 <0>        -0.5721
     25 C16         7.9755   -2.2076   -8.6285 C.ar      1 <0>         0.1530
     26 C17         7.3202   -3.2638   -8.0119 C.ar      1 <0>        -0.1455
     27 C18         8.0381   -4.3594   -7.5716 C.ar      1 <0>        -0.0797
     28 C19         9.4094   -4.4065   -7.7437 C.ar      1 <0>        -0.1625
     29 C20        10.0694   -3.3577   -8.3568 C.ar      1 <0>        -0.1341
     30 C21         9.3564   -2.2584   -8.8067 C.ar      1 <0>         0.0606
     31 O6         10.0035   -1.2288   -9.4153 O.3       1 <0>        -0.4880
     32 C22         7.3249   -5.5055   -6.9016 C.3       1 <0>        -0.1093
     33 H2         -0.4485    2.1930   -0.6827 H         1 <0>         0.0477
     34 H3         -1.7929    1.4891   -1.6130 H         1 <0>         0.0574
     35 H4         -1.9350    1.6794    0.1510 H         1 <0>         0.0463
     36 H5         -0.1158    0.0260    0.4759 H         1 <0>         0.0806
     37 H6         -1.4602   -0.6778   -0.4544 H         1 <0>         0.0644
     38 H7          2.1532    0.0599   -2.9962 H         1 <0>         0.1321
     39 H8          3.4073    0.5118   -5.0591 H         1 <0>         0.1209
     40 H9         -0.2431    0.2928   -7.3146 H         1 <0>         0.1267
     41 H10        -2.2203    0.8551   -6.9596 H         1 <0>         0.0465
     42 H11        -1.9658   -0.8919   -7.1866 H         1 <0>         0.0489
     43 H12        -3.4605   -0.3024   -6.4207 H         1 <0>         0.0892
     44 H13         2.0040    1.3699   -8.3040 H         1 <0>         0.1258
     45 H14         6.2493   -3.2295   -7.8758 H         1 <0>         0.1429
     46 H15         9.9663   -5.2648   -7.3980 H         1 <0>         0.1088
     47 H16        11.1405   -3.3976   -8.4894 H         1 <0>         0.1133
     48 H17        10.3723   -0.5786   -8.8019 H         1 <0>         0.3685
     49 H18         7.0224   -6.2345   -7.6534 H         1 <0>         0.0600
     50 H19         7.9941   -5.9801   -6.1839 H         1 <0>         0.0570
     51 H20         6.4425   -5.1309   -6.3829 H         1 <0>         0.0685
@<TRIPOS>BOND
     1    1    2 1
     2    1   33 1
     3    1   34 1
     4    1   35 1
     5    2    3 1
     6    2   36 1
     7    2   37 1
     8    3    4 1
     9    3    5 1
    10    3    8 1
    11    5    6 2
    12    5    7 1
    13    8    9 1
    14    9   14 ar
    15    9   10 ar
    16   10   11 ar
    17   10   38 1
    18   11   12 ar
    19   11   39 1
    20   12   13 ar
    21   12   17 1
    22   13   14 ar
    23   13   40 1
    24   14   15 1
    25   15   16 1
    26   16   41 1
    27   16   42 1
    28   16   43 1
    29   17   18 2
    30   17   44 1
    31   18   23 1
    32   18   19 1
    33   19   20 2
    34   19   21 1
    35   21   22 2
    36   22   23 1
    37   22   24 1
    38   24   25 1
    39   25   30 ar
    40   25   26 ar
    41   26   27 ar
    42   26   45 1
    43   27   28 ar
    44   27   32 1
    45   28   29 ar
    46   28   46 1
    47   29   30 ar
    48   29   47 1
    49   30   31 1
    50   31   48 1
    51   32   49 1
    52   32   50 1
    53   32   51 1
@<TRIPOS>MOLECULE
ZINC02891968
   48    49     0     0     0
SMALL
USER_CHARGES
2-[2-(4-bromobenzoyl)amino-3-(4-chlorophenyl)-prop-2-enoyl]amino-3-methyl-butanoic acid
@<TRIPOS>ATOM
      1 C1         -2.3138    1.5720    1.8105 C.3       1 <0>        -0.1420
      2 C2         -2.5167    2.3019    0.4812 C.3       1 <0>        -0.0835
      3 C3         -3.5593    3.4073    0.6603 C.3       1 <0>        -0.1538
      4 C4         -1.1912    2.9191    0.0308 C.3       1 <0>         0.1039
      5 H1         -0.8450    3.6264    0.7845 H         1 <0>         0.0870
      6 C5         -1.3910    3.6381   -1.2785 C.2       1 <0>         0.4571
      7 O1         -0.7640    3.3009   -2.2547 O.co2     1 <0>        -0.6138
      8 N1         -0.1930    1.8607   -0.1407 N.am      1 <0>        -0.6794
      9 C6          1.1196    2.1496   -0.0403 C.2       1 <0>         0.5565
     10 O2          1.4784    3.3006    0.1232 O.2       1 <0>        -0.5345
     11 C7          2.1178    1.0741   -0.1284 C.2       1 <0>         0.0880
     12 C8          3.4321    1.3565    0.0259 C.2       1 <0>        -0.0643
     13 C9          4.4408    0.3108   -0.2030 C.ar      1 <0>        -0.0511
     14 C10         5.7116    0.4225    0.3709 C.ar      1 <0>        -0.0868
     15 C11         6.6501   -0.5640    0.1563 C.ar      1 <0>        -0.1117
     16 C12         6.3410   -1.6587   -0.6345 C.ar      1 <0>        -0.0317
     17 C13         5.0862   -1.7734   -1.2105 C.ar      1 <0>        -0.1102
     18 C14         4.1358   -0.7974   -1.0004 C.ar      1 <0>        -0.1045
     19 Cl1         7.5316   -2.8929   -0.9046 Cl        1 <0>        -0.0737
     20 N2          1.7092   -0.2407   -0.3716 N.am      1 <0>        -0.6802
     21 C15         1.0087   -0.5336   -1.4851 C.2       1 <0>         0.5310
     22 O3          0.8161    0.3238   -2.3253 O.2       1 <0>        -0.4602
     23 C16         0.4748   -1.8969   -1.6849 C.ar      1 <0>        -0.1165
     24 C17         0.6993   -2.8853   -0.7246 C.ar      1 <0>        -0.0815
     25 C18         0.1939   -4.1543   -0.9144 C.ar      1 <0>        -0.0975
     26 C19        -0.5254   -4.4522   -2.0595 C.ar      1 <0>        -0.0674
     27 C20        -0.7465   -3.4777   -3.0183 C.ar      1 <0>        -0.0955
     28 C21        -0.2513   -2.2035   -2.8374 C.ar      1 <0>        -0.0478
     29 Br1        -1.2092   -6.1966   -2.3149 Br        1 <0>        -0.0450
     30 H2         -3.2582    1.1323    2.1314 H         1 <0>         0.0505
     31 H3         -1.5711    0.7845    1.6829 H         1 <0>         0.0444
     32 H4         -1.9677    2.2792    2.5642 H         1 <0>         0.0526
     33 H5         -2.8629    1.5947   -0.2725 H         1 <0>         0.0619
     34 H6         -3.7038    3.9273   -0.2867 H         1 <0>         0.1091
     35 H7         -4.5036    2.9676    0.9812 H         1 <0>         0.0343
     36 H8         -3.2131    4.1146    1.4140 H         1 <0>         0.0448
     37 H9         -0.4766    0.9527   -0.3305 H         1 <0>         0.3866
     38 H10         3.7404    2.3497    0.3171 H         1 <0>         0.1561
     39 H11         5.9555    1.2776    0.9840 H         1 <0>         0.1389
     40 H12         7.6302   -0.4813    0.6024 H         1 <0>         0.1352
     41 H13         4.8522   -2.6296   -1.8258 H         1 <0>         0.1337
     42 H14         3.1583   -0.8878   -1.4506 H         1 <0>         0.1435
     43 H15         1.9298   -0.9421    0.2611 H         1 <0>         0.4090
     44 H16         1.2639   -2.6554    0.1668 H         1 <0>         0.1354
     45 H17         0.3630   -4.9186   -0.1702 H         1 <0>         0.1399
     46 H18        -1.3083   -3.7161   -3.9094 H         1 <0>         0.1421
     47 H19        -0.4249   -1.4441   -3.5855 H         1 <0>         0.1514
     48 O4         -2.2657    4.6530   -1.3602 O.co2     1 <0>        -0.7603
@<TRIPOS>BOND
     1    1    2 1
     2    1   30 1
     3    1   31 1
     4    1   32 1
     5    2    3 1
     6    2    4 1
     7    2   33 1
     8    3   34 1
     9    3   35 1
    10    3   36 1
    11    4    5 1
    12    4    6 1
    13    4    8 1
    14    6    7 2
    15    6   48 1
    16    8    9 am
    17    8   37 1
    18    9   10 2
    19    9   11 1
    20   11   12 2
    21   11   20 1
    22   12   13 1
    23   12   38 1
    24   13   18 ar
    25   13   14 ar
    26   14   15 ar
    27   14   39 1
    28   15   16 ar
    29   15   40 1
    30   16   17 ar
    31   16   19 1
    32   17   18 ar
    33   17   41 1
    34   18   42 1
    35   20   21 am
    36   20   43 1
    37   21   22 2
    38   21   23 1
    39   23   28 ar
    40   23   24 ar
    41   24   25 ar
    42   24   44 1
    43   25   26 ar
    44   25   45 1
    45   26   27 ar
    46   26   29 1
    47   27   28 ar
    48   27   46 1
    49   28   47 1
@<TRIPOS>MOLECULE
ZINC13195437
   51    53     0     0     0
SMALL
USER_CHARGES
4-[[4-[4-(2,2-dimethylpropanoylamino)phenyl]thiazol-2-yl]sulfamoyl]benzoic acid
@<TRIPOS>ATOM
      1 C1          2.0396   -4.6491  -12.6857 C.3       1 <0>        -0.1299
      2 C2          3.4061   -4.4939  -12.0154 C.3       1 <0>        -0.0844
      3 C3          4.2314   -3.4531  -12.7748 C.3       1 <0>        -0.1433
      4 C4          4.1384   -5.8371  -12.0331 C.3       1 <0>        -0.1421
      5 C5          3.2181   -4.0430  -10.5898 C.2       1 <0>         0.5204
      6 O1          2.1009   -3.8635  -10.1528 O.2       1 <0>        -0.5124
      7 N1          4.2913   -3.8392   -9.8003 N.am      1 <0>        -0.6727
      8 C6          4.1156   -3.5282   -8.4474 C.ar      1 <0>         0.1490
      9 C7          3.0438   -4.0662   -7.7455 C.ar      1 <0>        -0.1237
     10 C8          2.8682   -3.7609   -6.4124 C.ar      1 <0>        -0.0639
     11 C9          3.7675   -2.9120   -5.7686 C.ar      1 <0>        -0.0352
     12 C10         4.8391   -2.3693   -6.4764 C.ar      1 <0>        -0.0817
     13 C11         5.0130   -2.6815   -7.8082 C.ar      1 <0>        -0.1459
     14 C12         3.5811   -2.5820   -4.3347 C.2       1 <0>         0.1193
     15 C13         4.4585   -1.7511   -3.6981 C.2       1 <0>        -0.2171
     16 S1          3.7523   -1.7148   -2.0560 S.3       1 <0>         0.0685
     17 C14         2.3759   -2.8083   -2.3781 C.2       1 <0>         0.3455
     18 N2          2.5567   -3.0922   -3.6549 N.2       1 <0>        -0.5260
     19 N3          1.3794   -3.2393   -1.5174 N.pl3     1 <0>        -0.9917
     20 S2          1.3723   -2.7347    0.0599 S.o2      1 <0>         2.6795
     21 O2          2.6874   -2.9397    0.5578 O.2       1 <0>        -0.9310
     22 O3          0.2280   -3.3182    0.6678 O.2       1 <0>        -0.9317
     23 C15         1.1038   -0.9933    0.0486 C.ar      1 <0>        -0.6906
     24 C16        -0.1861   -0.4951    0.0972 C.ar      1 <0>        -0.0304
     25 C17        -0.4035    0.8671    0.0887 C.ar      1 <0>        -0.1076
     26 C18         0.6819    1.7436    0.0309 C.ar      1 <0>        -0.0431
     27 C19         1.9809    1.2340   -0.0179 C.ar      1 <0>        -0.0947
     28 C20         2.1839   -0.1304   -0.0092 C.ar      1 <0>        -0.0319
     29 C21         0.4568    3.2036    0.0210 C.2       1 <0>         0.4823
     30 O4         -0.6745    3.6440    0.0632 O.co2     1 <0>        -0.6186
     31 H1          1.5179   -3.6922  -12.6731 H         1 <0>         0.0641
     32 H2          2.1756   -4.9753  -13.7168 H         1 <0>         0.0640
     33 H3          1.4517   -5.3906  -12.1447 H         1 <0>         0.0636
     34 H4          5.2049   -3.3425  -12.2973 H         1 <0>         0.0597
     35 H5          4.3674   -3.7792  -13.8060 H         1 <0>         0.0718
     36 H6          3.7097   -2.4962  -12.7622 H         1 <0>         0.0636
     37 H7          3.5505   -6.5786  -11.4921 H         1 <0>         0.0628
     38 H8          4.2744   -6.1633  -13.0642 H         1 <0>         0.0715
     39 H9          5.1120   -5.7265  -11.5556 H         1 <0>         0.0603
     40 H10         5.1854   -3.9082  -10.1700 H         1 <0>         0.4094
     41 H11         2.3475   -4.7237   -8.2447 H         1 <0>         0.1346
     42 H12         2.0346   -4.1787   -5.8675 H         1 <0>         0.1367
     43 H13         5.5344   -1.7077   -5.9812 H         1 <0>         0.1315
     44 H14         5.8451   -2.2644   -8.3560 H         1 <0>         0.1286
     45 H15         5.3351   -1.2506   -4.0820 H         1 <0>         0.2035
     46 H16         0.6859   -3.8365   -1.8387 H         1 <0>         0.4396
     47 H17        -1.0246   -1.1742    0.1423 H         1 <0>         0.1377
     48 H18        -1.4110    1.2546    0.1222 H         1 <0>         0.1411
     49 H19         2.8248    1.9065   -0.0624 H         1 <0>         0.1452
     50 H20         3.1881   -0.5260   -0.0473 H         1 <0>         0.1357
     51 O5          1.5061    4.0465   -0.0349 O.co2     1 <0>        -0.7401
@<TRIPOS>BOND
     1    1    2 1
     2    1   31 1
     3    1   32 1
     4    1   33 1
     5    2    3 1
     6    2    4 1
     7    2    5 1
     8    3   34 1
     9    3   35 1
    10    3   36 1
    11    4   37 1
    12    4   38 1
    13    4   39 1
    14    5    6 2
    15    5    7 am
    16    7    8 1
    17    7   40 1
    18    8   13 ar
    19    8    9 ar
    20    9   10 ar
    21    9   41 1
    22   10   11 ar
    23   10   42 1
    24   11   12 ar
    25   11   14 1
    26   12   13 ar
    27   12   43 1
    28   13   44 1
    29   14   18 1
    30   14   15 2
    31   15   16 1
    32   15   45 1
    33   16   17 1
    34   17   18 2
    35   17   19 1
    36   19   20 1
    37   19   46 1
    38   20   21 2
    39   20   22 2
    40   20   23 1
    41   23   28 ar
    42   23   24 ar
    43   24   25 ar
    44   24   47 1
    45   25   26 ar
    46   25   48 1
    47   26   27 ar
    48   26   29 1
    49   27   28 ar
    50   27   49 1
    51   28   50 1
    52   29   30 2
    53   29   51 1
@<TRIPOS>MOLECULE
ZINC13394714
   46    47     0     0     0
SMALL
USER_CHARGES
3-[[4-[[(E)-3-[4-(trifluoromethyl)phenyl]prop-2-enoyl]amino]phenyl]sulfonylamino]propanoic acid
@<TRIPOS>ATOM
      1 C1         -1.4809    8.0903   -8.9449 C.ar      1 <0>        -0.1045
      2 C2         -1.6297    8.8571  -10.0813 C.ar      1 <0>        -0.0710
      3 C3         -0.7372    9.8796  -10.3522 C.ar      1 <0>        -0.1757
      4 C4          0.3074   10.1444   -9.4837 C.ar      1 <0>        -0.0705
      5 C5          0.4662    9.3903   -8.3403 C.ar      1 <0>        -0.0938
      6 C6         -0.4314    8.3554   -8.0595 C.ar      1 <0>        -0.0410
      7 C7         -0.2687    7.5452   -6.8414 C.2       1 <0>        -0.0205
      8 C8         -1.1361    6.5482   -6.5740 C.2       1 <0>        -0.1993
      9 C9         -0.9744    5.7425   -5.3626 C.2       1 <0>         0.5436
     10 O1         -0.0569    5.9726   -4.5967 O.2       1 <0>        -0.5054
     11 N1         -1.8414    4.7459   -5.0953 N.am      1 <0>        -0.6709
     12 C10        -1.7541    4.0487   -3.8865 C.ar      1 <0>         0.1982
     13 C11        -2.0807    2.6995   -3.8360 C.ar      1 <0>        -0.1697
     14 C12        -1.9938    2.0139   -2.6403 C.ar      1 <0>         0.0016
     15 C13        -1.5817    2.6690   -1.4943 C.ar      1 <0>        -0.6895
     16 C14        -1.2613    4.0135   -1.5399 C.ar      1 <0>         0.0066
     17 C15        -1.3410    4.7037   -2.7335 C.ar      1 <0>        -0.1413
     18 S1         -1.4717    1.7904    0.0291 S.o2      1 <0>         2.6968
     19 O2         -2.3527    0.6806   -0.0777 O.2       1 <0>        -0.9698
     20 O3         -1.5859    2.7569    1.0645 O.2       1 <0>        -0.9569
     21 N2          0.0608    1.1705    0.1272 N.pl3     1 <0>        -1.1151
     22 C16         1.2116    2.0727    0.2163 C.3       1 <0>         0.1314
     23 C17         2.4451    1.2835    0.6595 C.3       1 <0>        -0.1638
     24 C18         3.6289    2.2116    0.7513 C.2       1 <0>         0.4637
     25 O4          3.4992    3.3839    0.4891 O.co2     1 <0>        -0.6370
     26 C19        -0.9035   10.7087  -11.5996 C.3       1 <0>         0.5077
     27 F1         -0.1892   10.1207  -12.6490 F         1 <0>        -0.1751
     28 F2         -2.2593   10.7753  -11.9380 F         1 <0>        -0.1764
     29 F3         -0.4162   11.9998  -11.3698 F         1 <0>        -0.1757
     30 H1         -2.1757    7.2900   -8.7369 H         1 <0>         0.1405
     31 H2         -2.4423    8.6565  -10.7638 H         1 <0>         0.1402
     32 H3          0.9997   10.9441   -9.7020 H         1 <0>         0.1415
     33 H4          1.2818    9.5981   -7.6636 H         1 <0>         0.1444
     34 H5          0.5454    7.7494   -6.1618 H         1 <0>         0.1461
     35 H6         -1.9503    6.3440   -7.2536 H         1 <0>         0.1356
     36 H7         -2.5260    4.5123   -5.7416 H         1 <0>         0.4143
     37 H8         -2.4019    2.1872   -4.7308 H         1 <0>         0.1345
     38 H9         -2.2476    0.9649   -2.6003 H         1 <0>         0.1442
     39 H10        -0.9444    4.5232   -0.6421 H         1 <0>         0.1479
     40 H11        -1.0860    5.7526   -2.7695 H         1 <0>         0.1441
     41 H12         0.1967    0.2101    0.1215 H         1 <0>         0.4155
     42 H13         1.3983    2.5209   -0.7595 H         1 <0>         0.0670
     43 H14         1.0022    2.8579    0.9428 H         1 <0>         0.0826
     44 H15         2.2584    0.8352    1.6354 H         1 <0>         0.0741
     45 H16         2.6545    0.4983   -0.0669 H         1 <0>         0.0715
     46 O5          4.8274    1.7358    1.1243 O.co2     1 <0>        -0.7703
@<TRIPOS>BOND
     1    1    6 ar
     2    1    2 ar
     3    1   30 1
     4    2    3 ar
     5    2   31 1
     6    3    4 ar
     7    3   26 1
     8    4    5 ar
     9    4   32 1
    10    5    6 ar
    11    5   33 1
    12    6    7 1
    13    7    8 2
    14    7   34 1
    15    8    9 1
    16    8   35 1
    17    9   10 2
    18    9   11 am
    19   11   12 1
    20   11   36 1
    21   12   17 ar
    22   12   13 ar
    23   13   14 ar
    24   13   37 1
    25   14   15 ar
    26   14   38 1
    27   15   16 ar
    28   15   18 1
    29   16   17 ar
    30   16   39 1
    31   17   40 1
    32   18   19 2
    33   18   20 2
    34   18   21 1
    35   21   22 1
    36   21   41 1
    37   22   23 1
    38   22   42 1
    39   22   43 1
    40   23   24 1
    41   23   44 1
    42   23   45 1
    43   24   25 2
    44   24   46 1
    45   26   27 1
    46   26   28 1
    47   26   29 1
@<TRIPOS>MOLECULE
ZINC30830694
   54    57     0     0     0
SMALL
USER_CHARGES
N-[[4-[(4,6-dimethylpyrimidin-2-yl)sulfamoyl]phenyl]carbamothioyl]naphthalene-2-carboxamide
@<TRIPOS>ATOM
      1 C1          4.5632   -0.3893   -3.1951 C.3       1 <0>        -0.1023
      2 C2          3.4841   -1.4177   -3.4164 C.ar      1 <0>         0.2082
      3 C3          3.3649   -2.0571   -4.6404 C.ar      1 <0>        -0.3331
      4 C4          2.3589   -2.9967   -4.8019 C.ar      1 <0>         0.2011
      5 N1          1.5475   -3.2538   -3.7894 N.ar      1 <0>        -0.5506
      6 C5          1.6885   -2.6248   -2.6319 C.ar      1 <0>         0.5915
      7 N2          2.6361   -1.7175   -2.4465 N.ar      1 <0>        -0.6123
      8 N3          0.8217   -2.9183   -1.5935 N.2       1 <0>        -1.0098
      9 S1          1.1876   -2.4426   -0.0500 S.o2      1 <0>         2.6238
     10 O1          2.5286   -2.8454    0.1920 O.2       1 <0>        -1.0210
     11 O2          0.1063   -2.8617    0.7712 O.2       1 <0>        -0.9928
     12 C6          1.1800   -0.6807   -0.0323 C.ar      1 <0>        -0.6418
     13 C7          0.0115    0.0014    0.2534 C.ar      1 <0>        -0.0203
     14 C8          0.0022    1.3823    0.2681 C.ar      1 <0>        -0.1073
     15 C9          1.1681    2.0861   -0.0044 C.ar      1 <0>         0.1526
     16 C10         2.3403    1.3980   -0.2900 C.ar      1 <0>        -0.1564
     17 C11         2.3427    0.0170   -0.3036 C.ar      1 <0>         0.0174
     18 N4          1.1620    3.4847    0.0092 N.pl3     1 <0>        -0.6291
     19 C12         0.4941    4.1463    0.9750 C.2       1 <0>         0.5174
     20 S2         -0.2274    3.2805    2.2637 S.2       1 <0>        -0.4964
     21 N5          0.3941    5.4895    0.9261 N.am      1 <0>        -0.6541
     22 C13        -0.2738    6.1511    1.8919 C.2       1 <0>         0.5356
     23 O3         -0.7860    5.5364    2.8068 O.2       1 <0>        -0.4055
     24 C14        -0.3834    7.6230    1.8384 C.ar      1 <0>        -0.1344
     25 C15         0.2164    8.3297    0.7800 C.ar      1 <0>        -0.0955
     26 C16         0.1252    9.6817    0.7063 C.ar      1 <0>        -0.1053
     27 C17        -0.5665   10.3961    1.7019 C.ar      1 <0>        -0.0336
     28 C18        -0.6689   11.7962    1.6498 C.ar      1 <0>        -0.1134
     29 C19        -1.3442   12.4605    2.6277 C.ar      1 <0>        -0.1034
     30 C20        -1.9381   11.7727    3.6843 C.ar      1 <0>        -0.1190
     31 C21        -1.8602   10.4167    3.7687 C.ar      1 <0>        -0.0931
     32 C22        -1.1708    9.6960    2.7768 C.ar      1 <0>        -0.0620
     33 C23        -1.0711    8.2978    2.8338 C.ar      1 <0>        -0.0253
     34 C24         2.1919   -3.7171   -6.1150 C.3       1 <0>        -0.1013
     35 H1          5.1609   -0.2818   -4.1123 H         1 <0>         0.0676
     36 H2          5.2139   -0.7125   -2.3692 H         1 <0>         0.0766
     37 H3          4.1025    0.5770   -2.9423 H         1 <0>         0.0716
     38 H4          4.0410   -1.8278   -5.4508 H         1 <0>         0.1203
     39 H5         -0.8948   -0.5465    0.4655 H         1 <0>         0.1363
     40 H6         -0.9118    1.9145    0.4869 H         1 <0>         0.1359
     41 H7          3.2487    1.9423   -0.5017 H         1 <0>         0.1213
     42 H8          3.2538   -0.5186   -0.5260 H         1 <0>         0.1482
     43 H9          1.7023    4.0446   -0.7683 H         1 <0>         0.4260
     44 H10         0.8576    6.0457    0.0980 H         1 <0>         0.4281
     45 H11         0.7525    7.7890    0.0141 H         1 <0>         0.1229
     46 H12         0.5877   10.2100   -0.1144 H         1 <0>         0.1344
     47 H13        -0.2143   12.3433    0.8372 H         1 <0>         0.1301
     48 H14        -1.4204   13.5369    2.5842 H         1 <0>         0.1260
     49 H15        -2.4677   12.3239    4.4473 H         1 <0>         0.1270
     50 H16        -2.3249    9.8966    4.5933 H         1 <0>         0.1332
     51 H17        -1.5264    7.7521    3.6470 H         1 <0>         0.1465
     52 H18         1.3459   -4.4167   -6.0444 H         1 <0>         0.0750
     53 H19         3.1110   -4.2753   -6.3464 H         1 <0>         0.0726
     54 H20         1.9968   -2.9851   -6.9126 H         1 <0>         0.0719
@<TRIPOS>BOND
     1    1    2 1
     2    1   35 1
     3    1   36 1
     4    1   37 1
     5    2    7 ar
     6    2    3 ar
     7    3    4 ar
     8    3   38 1
     9    4    5 ar
    10    4   34 1
    11    5    6 ar
    12    6    7 ar
    13    6    8 1
    14    8    9 1
    15    9   10 2
    16    9   11 2
    17    9   12 1
    18   12   17 ar
    19   12   13 ar
    20   13   14 ar
    21   13   39 1
    22   14   15 ar
    23   14   40 1
    24   15   16 ar
    25   15   18 1
    26   16   17 ar
    27   16   41 1
    28   17   42 1
    29   18   19 1
    30   18   43 1
    31   19   20 2
    32   19   21 1
    33   21   22 am
    34   21   44 1
    35   22   23 2
    36   22   24 1
    37   24   33 ar
    38   24   25 ar
    39   25   26 ar
    40   25   45 1
    41   26   27 ar
    42   26   46 1
    43   27   32 ar
    44   27   28 ar
    45   28   29 ar
    46   28   47 1
    47   29   30 ar
    48   29   48 1
    49   30   31 ar
    50   30   49 1
    51   31   32 ar
    52   31   50 1
    53   32   33 ar
    54   33   51 1
    55   34   52 1
    56   34   53 1
    57   34   54 1
@<TRIPOS>MOLECULE
ZINC43743415
   78    81     0     0     0
SMALL
USER_CHARGES

@<TRIPOS>ATOM
      1 C1          0.1511    1.8595   -3.0067 C.3       1 <0>        -0.1473
      2 C2          0.1348    0.3474   -2.7740 C.3       1 <0>        -0.1153
      3 C3          0.9389   -0.3467   -3.8752 C.3       1 <0>        -0.0801
      4 H1          1.9427    0.0763   -3.9137 H         1 <0>         0.0598
      5 C4          0.2450   -0.1371   -5.2226 C.3       1 <0>        -0.1432
      6 C5          1.0277   -1.8443   -3.5748 C.3       1 <0>         0.0774
      7 H2          1.4409   -1.9909   -2.5769 H         1 <0>         0.0797
      8 C6         -0.3493   -2.4529   -3.6428 C.2       1 <0>         0.4984
      9 O1         -0.7681   -2.8970   -4.6981 O.co2     1 <0>        -0.6901
     10 O2         -1.0445   -2.5011   -2.6423 O.co2     1 <0>        -0.6927
     11 N1          1.8961   -2.4898   -4.5625 N.am      1 <0>        -0.6913
     12 C7          2.5296   -3.6388   -4.2542 C.2       1 <0>         0.5124
     13 O3          2.3807   -4.1384   -3.1592 O.2       1 <0>        -0.5302
     14 C8          3.4229   -4.3027   -5.2702 C.3       1 <0>         0.0611
     15 O4          3.9753   -5.4961   -4.7111 O.3       1 <0>        -0.2078
     16 N2          4.8345   -6.1997   -5.5897 N.2       1 <0>        -0.3391
     17 C9          5.3992   -7.2989   -5.2012 C.2       1 <0>         0.1653
     18 C10         5.1665   -7.8761   -3.8176 C.3       1 <0>        -0.1156
     19 C11         6.5358   -8.1368   -3.1908 C.3       1 <0>        -0.1063
     20 C12         7.4039   -9.0181   -4.0549 C.3       1 <0>        -0.0195
     21 C13         7.2742  -10.4937   -3.6756 C.3       1 <0>        -0.0636
     22 H3          6.2610  -10.8323   -3.8919 H         1 <0>         0.0710
     23 C14         7.5542  -10.6649   -2.1857 C.3       1 <0>        -0.1258
     24 C15         7.5616  -12.1468   -1.7773 C.3       1 <0>        -0.1022
     25 C16         8.6095  -12.8414   -2.6253 C.3       1 <0>        -0.0487
     26 C17         8.1339  -12.7608   -4.1009 C.3       1 <0>        -0.0828
     27 H4          7.1039  -13.1065   -4.1882 H         1 <0>         0.0772
     28 C18         8.2713  -11.3084   -4.5173 C.3       1 <0>        -0.0782
     29 H5          9.2850  -10.9546   -4.3292 H         1 <0>         0.0904
     30 C19         7.9313  -11.1736   -6.0016 C.3       1 <0>        -0.1116
     31 C20         8.0814   -9.7130   -6.4423 C.3       1 <0>        -0.0871
     32 C21         7.2104   -8.8644   -5.5312 C.2       1 <0>        -0.0588
     33 C22         6.3020   -8.0670   -6.0808 C.2       1 <0>        -0.1157
     34 C23         9.0865  -13.7447   -4.7886 C.3       1 <0>        -0.1132
     35 C24         9.1525  -14.9257   -3.7819 C.3       1 <0>        -0.1503
     36 C25         8.7866  -14.3389   -2.3958 C.3       1 <0>         0.1361
     37 C26         7.4818  -14.9551   -1.8870 C.3       1 <0>        -0.1751
     38 O5          9.8435  -14.5753   -1.4635 O.3       1 <0>        -0.5538
     39 C27         9.9555  -12.1305   -2.4710 C.3       1 <0>        -0.1358
     40 C28         8.8550   -8.6334   -3.7598 C.3       1 <0>        -0.1545
     41 H6          1.1798    2.2191   -2.9870 H         1 <0>         0.0463
     42 H7         -0.2933    2.0827   -3.9767 H         1 <0>         0.0533
     43 H8         -0.4218    2.3541   -2.2223 H         1 <0>         0.0491
     44 H9          0.5792    0.1243   -1.8040 H         1 <0>         0.0592
     45 H10        -0.8940   -0.0122   -2.7937 H         1 <0>         0.0779
     46 H11        -0.7588   -0.5601   -5.1841 H         1 <0>         0.0721
     47 H12         0.1817    0.9298   -5.4365 H         1 <0>         0.0459
     48 H13         0.8179   -0.6316   -6.0071 H         1 <0>         0.0459
     49 H14         2.0152   -2.0902   -5.4383 H         1 <0>         0.3926
     50 H15         2.8410   -4.5526   -6.1574 H         1 <0>         0.0852
     51 H16         4.2295   -3.6227   -5.5443 H         1 <0>         0.0804
     52 H17         4.6102   -7.1637   -3.2083 H         1 <0>         0.0918
     53 H18         4.6111   -8.8107   -3.8952 H         1 <0>         0.0855
     54 H19         7.0417   -7.1834   -3.0382 H         1 <0>         0.0670
     55 H20         6.3954   -8.6189   -2.2233 H         1 <0>         0.0816
     56 H21         8.5250  -10.2271   -1.9536 H         1 <0>         0.0742
     57 H22         6.7847  -10.1429   -1.6169 H         1 <0>         0.0679
     58 H23         7.8173  -12.2395   -0.7218 H         1 <0>         0.0649
     59 H24         6.5822  -12.5877   -1.9629 H         1 <0>         0.0646
     60 H25         8.6063  -11.7990   -6.5858 H         1 <0>         0.0668
     61 H26         6.9042  -11.4981   -6.1685 H         1 <0>         0.0646
     62 H27         9.1228   -9.4045   -6.3504 H         1 <0>         0.0781
     63 H28         7.7524   -9.6031   -7.4756 H         1 <0>         0.0744
     64 H29         6.2264   -7.9780   -7.1545 H         1 <0>         0.1314
     65 H30         8.6773  -14.0743   -5.7435 H         1 <0>         0.0656
     66 H31        10.0714  -13.2976   -4.9236 H         1 <0>         0.0697
     67 H32         8.4354  -15.6972   -4.0627 H         1 <0>         0.0670
     68 H33        10.1598  -15.3413   -3.7582 H         1 <0>         0.0699
     69 H34         6.6943  -14.7985   -2.6241 H         1 <0>         0.0668
     70 H35         7.6228  -16.0241   -1.7275 H         1 <0>         0.0543
     71 H36         7.1988  -14.4817   -0.9468 H         1 <0>         0.0659
     72 H37        10.0024  -15.5109   -1.2780 H         1 <0>         0.3708
     73 H38        10.3076  -12.2380   -1.4451 H         1 <0>         0.0593
     74 H39        10.6811  -12.5744   -3.1526 H         1 <0>         0.0522
     75 H40         9.8367  -11.0726   -2.7054 H         1 <0>         0.0628
     76 H41         9.0668   -8.7977   -2.7033 H         1 <0>         0.0641
     77 H42         9.5236   -9.2467   -4.3640 H         1 <0>         0.0634
     78 H43         9.0085   -7.5818   -4.0019 H         1 <0>         0.0543
@<TRIPOS>BOND
     1    1    2 1
     2    1   41 1
     3    1   42 1
     4    1   43 1
     5    2    3 1
     6    2   44 1
     7    2   45 1
     8    3    4 1
     9    3    5 1
    10    3    6 1
    11    5   46 1
    12    5   47 1
    13    5   48 1
    14    6    7 1
    15    6    8 1
    16    6   11 1
    17    8    9 2
    18    8   10 1
    19   11   12 am
    20   11   49 1
    21   12   13 2
    22   12   14 1
    23   14   15 1
    24   14   50 1
    25   14   51 1
    26   15   16 1
    27   16   17 2
    28   17   33 1
    29   17   18 1
    30   18   19 1
    31   18   52 1
    32   18   53 1
    33   19   20 1
    34   19   54 1
    35   19   55 1
    36   20   32 1
    37   20   21 1
    38   20   40 1
    39   21   22 1
    40   21   28 1
    41   21   23 1
    42   23   24 1
    43   23   56 1
    44   23   57 1
    45   24   25 1
    46   24   58 1
    47   24   59 1
    48   25   36 1
    49   25   26 1
    50   25   39 1
    51   26   27 1
    52   26   28 1
    53   26   34 1
    54   28   29 1
    55   28   30 1
    56   30   31 1
    57   30   60 1
    58   30   61 1
    59   31   32 1
    60   31   62 1
    61   31   63 1
    62   32   33 2
    63   33   64 1
    64   34   35 1
    65   34   65 1
    66   34   66 1
    67   35   36 1
    68   35   67 1
    69   35   68 1
    70   36   37 1
    71   36   38 1
    72   37   69 1
    73   37   70 1
    74   37   71 1
    75   38   72 1
    76   39   73 1
    77   39   74 1
    78   39   75 1
    79   40   76 1
    80   40   77 1
    81   40   78 1
@<TRIPOS>MOLECULE
ZINC04796965
   64    65     0     0     0
SMALL
USER_CHARGES
N-allyl-N-[[benzyl-[(5-methyl-2-furyl)methyl]carbamoyl]methyl]heptanamide
@<TRIPOS>ATOM
      1 C1         -8.3310    4.7032    6.7171 C.3       1 <0>        -0.1545
      2 C2         -7.2948    5.6363    6.0874 C.3       1 <0>        -0.1251
      3 C3         -6.0065    4.8575    5.8143 C.3       1 <0>        -0.1210
      4 C4         -4.9702    5.7906    5.1846 C.3       1 <0>        -0.1196
      5 C5         -3.6819    5.0118    4.9115 C.3       1 <0>        -0.1049
      6 C6         -2.6457    5.9448    4.2818 C.3       1 <0>        -0.1381
      7 C7         -1.3767    5.1777    4.0128 C.2       1 <0>         0.5241
      8 O1         -1.3079    4.0007    4.2968 O.2       1 <0>        -0.5323
      9 N1         -0.3183    5.7998    3.4566 N.am      1 <0>        -0.5970
     10 C8         -0.4015    7.2216    3.1135 C.3       1 <0>         0.1362
     11 C9         -0.9097    7.3690    1.7025 C.2       1 <0>        -0.1678
     12 C10        -1.9653    8.1059    1.4602 C.2       1 <0>        -0.1804
     13 C11         0.9153    5.0541    3.1951 C.3       1 <0>         0.0920
     14 C12         0.8585    4.4582    1.8121 C.2       1 <0>         0.5046
     15 O2         -0.1500    4.5646    1.1469 O.2       1 <0>        -0.5122
     16 N2          1.9285    3.8071    1.3144 N.am      1 <0>        -0.6046
     17 C13         3.1068    3.5840    2.1558 C.3       1 <0>         0.1448
     18 C14         4.1225    4.6663    1.8952 C.ar      1 <0>        -0.1093
     19 C15         5.0007    4.5490    0.8341 C.ar      1 <0>        -0.1038
     20 C16         5.9292    5.5441    0.5921 C.ar      1 <0>        -0.1163
     21 C17         5.9860    6.6518    1.4171 C.ar      1 <0>        -0.1136
     22 C18         5.1116    6.7665    2.4816 C.ar      1 <0>        -0.1165
     23 C19         4.1796    5.7738    2.7204 C.ar      1 <0>        -0.1120
     24 C20         1.9132    3.3225   -0.0680 C.3       1 <0>         0.2031
     25 C21         1.3605    1.9210   -0.1030 C.2       1 <0>        -0.0479
     26 C22         0.0651    1.5896   -0.2504 C.2       1 <0>        -0.1705
     27 C23        -0.0018    0.1776   -0.2265 C.2       1 <0>        -0.2153
     28 C24         1.2567   -0.2695   -0.0659 C.2       1 <0>        -0.0083
     29 O3          2.0776    0.7909    0.0083 O.3       1 <0>        -0.1748
     30 C25         1.6745   -1.7150    0.0171 C.3       1 <0>        -0.0742
     31 H1         -7.9407    4.3065    7.6543 H         1 <0>         0.0534
     32 H2         -9.2488    5.2581    6.9117 H         1 <0>         0.0532
     33 H3         -8.5417    3.8804    6.0340 H         1 <0>         0.0535
     34 H4         -7.0841    6.4591    6.7705 H         1 <0>         0.0602
     35 H5         -7.6851    6.0330    5.1502 H         1 <0>         0.0604
     36 H6         -6.2172    4.0347    5.1312 H         1 <0>         0.0621
     37 H7         -5.6161    4.4608    6.7515 H         1 <0>         0.0620
     38 H8         -4.7595    6.6134    5.8677 H         1 <0>         0.0618
     39 H9         -5.3606    6.1873    4.2474 H         1 <0>         0.0622
     40 H10        -3.8926    4.1889    4.2284 H         1 <0>         0.0692
     41 H11        -3.2916    4.6150    5.8487 H         1 <0>         0.0688
     42 H12        -2.4350    6.7677    4.9649 H         1 <0>         0.0922
     43 H13        -3.0360    6.3415    3.3445 H         1 <0>         0.0965
     44 H14        -1.0848    7.7216    3.7999 H         1 <0>         0.0892
     45 H15         0.5876    7.6728    3.1924 H         1 <0>         0.0878
     46 H16        -0.4037    6.8671    0.8911 H         1 <0>         0.1169
     47 H17        -2.4714    8.6078    2.2716 H         1 <0>         0.0970
     48 H18        -2.3296    8.2115    0.4490 H         1 <0>         0.0995
     49 H19         1.0204    4.2563    3.9304 H         1 <0>         0.1142
     50 H20         1.7691    5.7280    3.2657 H         1 <0>         0.1082
     51 H21         2.8133    3.6063    3.2054 H         1 <0>         0.0913
     52 H22         3.5423    2.6128    1.9210 H         1 <0>         0.0932
     53 H23         4.9590    3.6816    0.1920 H         1 <0>         0.1221
     54 H24         6.6126    5.4544   -0.2393 H         1 <0>         0.1242
     55 H25         6.7139    7.4275    1.2303 H         1 <0>         0.1235
     56 H26         5.1562    7.6317    3.1263 H         1 <0>         0.1244
     57 H27         3.4964    5.8634    3.5521 H         1 <0>         0.1213
     58 H28         2.9286    3.3226   -0.4643 H         1 <0>         0.0933
     59 H29         1.2862    3.9756   -0.6751 H         1 <0>         0.1131
     60 H30        -0.7641    2.2714   -0.3690 H         1 <0>         0.1484
     61 H31        -0.8923   -0.4262   -0.3199 H         1 <0>         0.1468
     62 H32         1.8971   -2.0869   -0.9830 H         1 <0>         0.0816
     63 H33         2.5629   -1.8011    0.6428 H         1 <0>         0.0757
     64 H34         0.8658   -2.3026    0.4516 H         1 <0>         0.0886
@<TRIPOS>BOND
     1    1    2 1
     2    1   31 1
     3    1   32 1
     4    1   33 1
     5    2    3 1
     6    2   34 1
     7    2   35 1
     8    3    4 1
     9    3   36 1
    10    3   37 1
    11    4    5 1
    12    4   38 1
    13    4   39 1
    14    5    6 1
    15    5   40 1
    16    5   41 1
    17    6    7 1
    18    6   42 1
    19    6   43 1
    20    7    8 2
    21    7    9 am
    22    9   10 1
    23    9   13 1
    24   10   11 1
    25   10   44 1
    26   10   45 1
    27   11   12 2
    28   11   46 1
    29   12   47 1
    30   12   48 1
    31   13   14 1
    32   13   49 1
    33   13   50 1
    34   14   15 2
    35   14   16 am
    36   16   17 1
    37   16   24 1
    38   17   18 1
    39   17   51 1
    40   17   52 1
    41   18   23 ar
    42   18   19 ar
    43   19   20 ar
    44   19   53 1
    45   20   21 ar
    46   20   54 1
    47   21   22 ar
    48   21   55 1
    49   22   23 ar
    50   22   56 1
    51   23   57 1
    52   24   25 1
    53   24   58 1
    54   24   59 1
    55   25   29 1
    56   25   26 2
    57   26   27 1
    58   26   60 1
    59   27   28 2
    60   27   61 1
    61   28   29 1
    62   28   30 1
    63   30   62 1
    64   30   63 1
    65   30   64 1
@<TRIPOS>MOLECULE
ZINC30952708
   66    69     0     0     0
SMALL
USER_CHARGES
2-phenyl-4-[8-[(2-phenylthiazol-4-yl)methylsulfanyl]octylsulfanylmethyl]thiazole
@<TRIPOS>ATOM
      1 C1          2.3776    1.4189   -0.0130 C.ar      1 <0>        -0.0982
      2 C2          1.1702    2.0943    0.0021 C.ar      1 <0>        -0.1181
      3 C3         -0.0168    1.3913    0.0097 C.ar      1 <0>        -0.0911
      4 C4          0.0021   -0.0041    0.0020 C.ar      1 <0>        -0.0202
      5 C5          1.2232   -0.6793   -0.0133 C.ar      1 <0>        -0.0686
      6 C6          2.4032    0.0356   -0.0207 C.ar      1 <0>        -0.1205
      7 C7         -1.2664   -0.7639    0.0105 C.2       1 <0>         0.1617
      8 N1         -1.4618   -2.0750    0.0054 N.2       1 <0>        -0.4866
      9 C8         -2.6714   -2.5837    0.0154 C.2       1 <0>         0.0730
     10 C9         -3.7528   -1.7598    0.0313 C.2       1 <0>        -0.1812
     11 S1         -2.9497   -0.1617    0.0384 S.3       1 <0>         0.0221
     12 C10        -2.8616   -4.0787    0.0088 C.3       1 <0>        -0.0189
     13 S2         -2.9203   -4.6883    1.7162 S.3       1 <0>        -0.2464
     14 C11        -3.1500   -6.4786    1.5353 C.3       1 <0>        -0.0885
     15 C12        -3.2171   -7.1266    2.9197 C.3       1 <0>        -0.1039
     16 C13        -3.4108   -8.6366    2.7671 C.3       1 <0>        -0.1150
     17 C14        -3.4780   -9.2847    4.1515 C.3       1 <0>        -0.1200
     18 C15        -3.6717  -10.7947    3.9989 C.3       1 <0>        -0.1200
     19 C16        -3.7389  -11.4427    5.3832 C.3       1 <0>        -0.1150
     20 C17        -3.9326  -12.9527    5.2306 C.3       1 <0>        -0.1039
     21 C18        -3.9998  -13.6007    6.6150 C.3       1 <0>        -0.0885
     22 S3         -4.2294  -15.3910    6.4341 S.3       1 <0>        -0.2464
     23 C19        -4.2881  -16.0007    8.1415 C.3       1 <0>        -0.0189
     24 C20        -4.4783  -17.4956    8.1349 C.2       1 <0>         0.0730
     25 C21        -3.3970  -18.3196    8.1190 C.2       1 <0>        -0.1813
     26 S4         -4.1999  -19.9177    8.1188 S.3       1 <0>         0.0221
     27 C22        -5.8833  -19.3154    8.1398 C.2       1 <0>         0.1619
     28 N2         -5.6879  -18.0044    8.1499 N.2       1 <0>        -0.4866
     29 C23        -7.1518  -20.0753    8.1496 C.ar      1 <0>        -0.0202
     30 C24        -8.3729  -19.4001    8.1724 C.ar      1 <0>        -0.0686
     31 C25        -9.5529  -20.1150    8.1771 C.ar      1 <0>        -0.1205
     32 C26        -9.5272  -21.4982    8.1696 C.ar      1 <0>        -0.0982
     33 C27        -8.3199  -22.1737    8.1519 C.ar      1 <0>        -0.1181
     34 C28        -7.1329  -21.4706    8.1421 C.ar      1 <0>        -0.0911
     35 H1          3.3041    1.9738   -0.0189 H         1 <0>         0.1295
     36 H2          1.1570    3.1742    0.0081 H         1 <0>         0.1322
     37 H3         -0.9587    1.9197    0.0170 H         1 <0>         0.1270
     38 H4          1.2446   -1.7590   -0.0189 H         1 <0>         0.1359
     39 H5          3.3490   -0.4857   -0.0329 H         1 <0>         0.1319
     40 H6         -4.8050   -2.0029    0.0406 H         1 <0>         0.2023
     41 H7         -3.8041   -4.3261   -0.5015 H         1 <0>         0.0980
     42 H8         -2.0223   -4.5528   -0.5212 H         1 <0>         0.0989
     43 H9         -4.0864   -6.6751    0.9927 H         1 <0>         0.0817
     44 H10        -2.3046   -6.9018    0.9729 H         1 <0>         0.0821
     45 H11        -2.2807   -6.9300    3.4623 H         1 <0>         0.0726
     46 H12        -4.0625   -6.7034    3.4821 H         1 <0>         0.0724
     47 H13        -4.3472   -8.8331    2.2244 H         1 <0>         0.0644
     48 H14        -2.5654   -9.0598    2.2048 H         1 <0>         0.0645
     49 H15        -2.5416   -9.0881    4.6942 H         1 <0>         0.0635
     50 H16        -4.3234   -8.8616    4.7138 H         1 <0>         0.0635
     51 H17        -4.6081  -10.9912    3.4562 H         1 <0>         0.0635
     52 H18        -2.8263  -11.2179    3.4366 H         1 <0>         0.0635
     53 H19        -2.8025  -11.2461    5.9259 H         1 <0>         0.0644
     54 H20        -4.5843  -11.0195    5.9455 H         1 <0>         0.0645
     55 H21        -4.8690  -13.1492    4.6879 H         1 <0>         0.0726
     56 H22        -3.0872  -13.3759    4.6683 H         1 <0>         0.0724
     57 H23        -3.0634  -13.4041    7.1577 H         1 <0>         0.0817
     58 H24        -4.8452  -13.1775    7.1773 H         1 <0>         0.0821
     59 H25        -3.3456  -15.7533    8.6518 H         1 <0>         0.0979
     60 H26        -5.1274  -15.5267    8.6715 H         1 <0>         0.0990
     61 H27        -2.3447  -18.0764    8.1088 H         1 <0>         0.2023
     62 H28        -8.3941  -18.3204    8.1824 H         1 <0>         0.1359
     63 H29       -10.4986  -19.5937    8.1906 H         1 <0>         0.1319
     64 H30       -10.4537  -22.0532    8.1771 H         1 <0>         0.1294
     65 H31        -8.3067  -23.2536    8.1460 H         1 <0>         0.1322
     66 H32        -6.1910  -21.9990    8.1283 H         1 <0>         0.1270
@<TRIPOS>BOND
     1    1    6 ar
     2    1    2 ar
     3    1   35 1
     4    2    3 ar
     5    2   36 1
     6    3    4 ar
     7    3   37 1
     8    4    5 ar
     9    4    7 1
    10    5    6 ar
    11    5   38 1
    12    6   39 1
    13    7   11 1
    14    7    8 2
    15    8    9 1
    16    9   10 2
    17    9   12 1
    18   10   11 1
    19   10   40 1
    20   12   13 1
    21   12   41 1
    22   12   42 1
    23   13   14 1
    24   14   15 1
    25   14   43 1
    26   14   44 1
    27   15   16 1
    28   15   45 1
    29   15   46 1
    30   16   17 1
    31   16   47 1
    32   16   48 1
    33   17   18 1
    34   17   49 1
    35   17   50 1
    36   18   19 1
    37   18   51 1
    38   18   52 1
    39   19   20 1
    40   19   53 1
    41   19   54 1
    42   20   21 1
    43   20   55 1
    44   20   56 1
    45   21   22 1
    46   21   57 1
    47   21   58 1
    48   22   23 1
    49   23   24 1
    50   23   59 1
    51   23   60 1
    52   24   28 1
    53   24   25 2
    54   25   26 1
    55   25   61 1
    56   26   27 1
    57   27   28 2
    58   27   29 1
    59   29   34 ar
    60   29   30 ar
    61   30   31 ar
    62   30   62 1
    63   31   32 ar
    64   31   63 1
    65   32   33 ar
    66   32   64 1
    67   33   34 ar
    68   33   65 1
    69   34   66 1
@<TRIPOS>MOLECULE
ZINC33724934
   68    70     0     0     0
SMALL
USER_CHARGES
N-[2-[benzyl-[(3-methyl-2-thienyl)methyl]amino]-2-oxo-ethyl]-N-(3-ethoxypropyl)cyclopentanecarboxamide
@<TRIPOS>ATOM
      1 C1          6.1800    6.6128    5.0325 C.3       1 <0>        -0.1539
      2 C2          4.7140    6.1982    5.1730 C.3       1 <0>         0.0559
      3 O1          4.3090    5.4775    4.0074 O.3       1 <0>        -0.3885
      4 C3          2.9483    5.0419    4.0370 C.3       1 <0>         0.0653
      5 C4          2.6267    4.2859    2.7463 C.3       1 <0>        -0.1341
      6 C5          1.1698    3.8195    2.7779 C.3       1 <0>         0.1215
      7 N1          0.8619    3.0956    1.5421 N.am      1 <0>        -0.5936
      8 C6          1.0677    1.6468    1.4712 C.3       1 <0>         0.0861
      9 C7         -0.1783    0.9391    1.9376 C.2       1 <0>         0.4963
     10 O2         -1.1450    1.5815    2.2895 O.2       1 <0>        -0.5117
     11 N2         -0.2204   -0.4079    1.9586 N.am      1 <0>        -0.5992
     12 C8         -1.4317   -1.0959    2.4120 C.3       1 <0>         0.1490
     13 C9         -2.2839   -1.4504    1.2208 C.ar      1 <0>        -0.1087
     14 C10        -3.2425   -0.5632    0.7681 C.ar      1 <0>        -0.0957
     15 C11        -4.0205   -0.8862   -0.3279 C.ar      1 <0>        -0.1202
     16 C12        -3.8475   -2.1010   -0.9645 C.ar      1 <0>        -0.1137
     17 C13        -2.8928   -2.9906   -0.5084 C.ar      1 <0>        -0.1218
     18 C14        -2.1109   -2.6652    0.5841 C.ar      1 <0>        -0.1088
     19 C15         0.9451   -1.1840    1.5279 C.3       1 <0>         0.1889
     20 C16         1.7876   -1.5328    2.7277 C.2       1 <0>        -0.1834
     21 C17         1.7973   -2.6723    3.4617 C.2       1 <0>        -0.0970
     22 C18         2.6678   -2.7736    4.5307 C.2       1 <0>        -0.1570
     23 C19         3.4784   -1.7264    4.8198 C.2       1 <0>        -0.1576
     24 S1          3.0263   -0.5495    3.5559 S.3       1 <0>         0.0341
     25 C20         0.8758   -3.8132    3.1150 C.3       1 <0>        -0.1086
     26 C21         0.3893    3.7623    0.4704 C.2       1 <0>         0.5261
     27 O3          0.3077    4.9721    0.4964 O.2       1 <0>        -0.5247
     28 C22        -0.0377    3.0047   -0.7603 C.3       1 <0>        -0.1151
     29 C23         1.1055    2.9916   -1.7960 C.3       1 <0>        -0.1136
     30 C24         0.3835    3.1182   -3.1604 C.3       1 <0>        -0.1214
     31 C25        -0.7674    4.1065   -2.8477 C.3       1 <0>        -0.1171
     32 C26        -1.2285    3.7135   -1.4290 C.3       1 <0>        -0.1052
     33 H1          6.4917    7.1676    5.9297 H         1 <0>         0.0720
     34 H2          6.2964    7.2538    4.1462 H         1 <0>         0.0638
     35 H3          6.8058    5.7151    4.9206 H         1 <0>         0.0630
     36 H4          4.5976    5.5572    6.0593 H         1 <0>         0.0480
     37 H5          4.0882    7.0959    5.2850 H         1 <0>         0.0490
     38 H6          2.7950    4.3767    4.8995 H         1 <0>         0.0496
     39 H7          2.2855    5.9153    4.1252 H         1 <0>         0.0522
     40 H8          2.7801    4.9512    1.8838 H         1 <0>         0.0788
     41 H9          3.2895    3.4124    2.6581 H         1 <0>         0.0717
     42 H10         1.0164    3.1543    3.6404 H         1 <0>         0.0780
     43 H11         0.5070    4.6929    2.8661 H         1 <0>         0.0899
     44 H12         1.2865    1.3579    0.4326 H         1 <0>         0.1126
     45 H13         1.9129    1.3645    2.1161 H         1 <0>         0.1089
     46 H14        -1.1524   -2.0142    2.9493 H         1 <0>         0.0886
     47 H15        -1.9985   -0.4355    3.0847 H         1 <0>         0.0980
     48 H16        -3.3807    0.3840    1.2682 H         1 <0>         0.1252
     49 H17        -4.7662   -0.1910   -0.6845 H         1 <0>         0.1220
     50 H18        -4.4580   -2.3548   -1.8185 H         1 <0>         0.1217
     51 H19        -2.7576   -3.9396   -1.0058 H         1 <0>         0.1224
     52 H20        -1.3650   -3.3602    0.9405 H         1 <0>         0.1197
     53 H21         0.6085   -2.1080    1.0350 H         1 <0>         0.1083
     54 H22         1.5418   -0.5881    0.8216 H         1 <0>         0.0966
     55 H23         2.6984   -3.6720    5.1293 H         1 <0>         0.1358
     56 H24         4.2085   -1.6294    5.6097 H         1 <0>         0.1871
     57 H25         1.0337   -4.6402    3.8229 H         1 <0>         0.0687
     58 H26         1.0895   -4.1595    2.0930 H         1 <0>         0.0723
     59 H27        -0.1684   -3.4726    3.1760 H         1 <0>         0.0702
     60 H28        -0.3027    1.9897   -0.4294 H         1 <0>         0.0835
     61 H29         1.7815    3.8384   -1.6066 H         1 <0>         0.0738
     62 H30         1.6661    2.0489   -1.7115 H         1 <0>         0.0683
     63 H31         1.0857    3.5079   -3.9120 H         1 <0>         0.0706
     64 H32         0.0201    2.1291   -3.4762 H         1 <0>         0.0691
     65 H33        -0.3861    5.1376   -2.8870 H         1 <0>         0.0704
     66 H34        -1.5687    3.9833   -3.5912 H         1 <0>         0.0685
     67 H35        -2.0869    3.0270   -1.4717 H         1 <0>         0.0685
     68 H36        -1.5004    4.6045   -0.8441 H         1 <0>         0.0802
@<TRIPOS>BOND
     1    1    2 1
     2    1   33 1
     3    1   34 1
     4    1   35 1
     5    2    3 1
     6    2   36 1
     7    2   37 1
     8    3    4 1
     9    4    5 1
    10    4   38 1
    11    4   39 1
    12    5    6 1
    13    5   40 1
    14    5   41 1
    15    6    7 1
    16    6   42 1
    17    6   43 1
    18    7    8 1
    19    7   26 am
    20    8    9 1
    21    8   44 1
    22    8   45 1
    23    9   10 2
    24    9   11 am
    25   11   12 1
    26   11   19 1
    27   12   13 1
    28   12   46 1
    29   12   47 1
    30   13   18 ar
    31   13   14 ar
    32   14   15 ar
    33   14   48 1
    34   15   16 ar
    35   15   49 1
    36   16   17 ar
    37   16   50 1
    38   17   18 ar
    39   17   51 1
    40   18   52 1
    41   19   20 1
    42   19   53 1
    43   19   54 1
    44   20   24 1
    45   20   21 2
    46   21   22 1
    47   21   25 1
    48   22   23 2
    49   22   55 1
    50   23   24 1
    51   23   56 1
    52   25   57 1
    53   25   58 1
    54   25   59 1
    55   26   27 2
    56   26   28 1
    57   28   32 1
    58   28   29 1
    59   28   60 1
    60   29   30 1
    61   29   61 1
    62   29   62 1
    63   30   31 1
    64   30   63 1
    65   30   64 1
    66   31   32 1
    67   31   65 1
    68   31   66 1
    69   32   67 1
    70   32   68 1
@<TRIPOS>MOLECULE
ZINC40026206
   67    69     0     0     0
SMALL
USER_CHARGES

@<TRIPOS>ATOM
      1 C1          0.2050    1.3218   -1.3908 C.3       1 <0>        -0.1489
      2 C2          0.2559   -0.1770   -1.0876 C.3       1 <0>         0.0532
      3 O1          1.2105   -0.8045   -1.9462 O.3       1 <0>        -0.3082
      4 C3          1.4503   -2.1272   -1.7405 C.ar      1 <0>         0.0963
      5 C4          0.7049   -2.8313   -0.8085 C.ar      1 <0>        -0.1642
      6 C5          0.9497   -4.1759   -0.6009 C.ar      1 <0>        -0.0671
      7 C6          1.9378   -4.8211   -1.3212 C.ar      1 <0>        -0.0787
      8 C7          2.6855   -4.1244   -2.2521 C.ar      1 <0>        -0.1747
      9 C8          2.4410   -2.7779   -2.4695 C.ar      1 <0>         0.0933
     10 O2          3.1716   -2.0924   -3.3893 O.3       1 <0>        -0.3077
     11 C9          4.1715   -2.8250   -4.1002 C.3       1 <0>         0.0570
     12 C10         4.8838   -1.8937   -5.0832 C.3       1 <0>        -0.1118
     13 C11         5.9544   -2.6781   -5.8444 C.3       1 <0>        -0.0947
     14 C12         5.2844   -3.7458   -6.7115 C.3       1 <0>        -0.1530
     15 C13         6.7496   -1.7222   -6.7360 C.3       1 <0>        -0.1456
     16 C14         0.1379   -4.9401    0.4131 C.3       1 <0>         0.2657
     17 H1         -0.7100   -4.3400    0.7430 H         1 <0>         0.0694
     18 C15         1.0016   -5.3133    1.5953 C.2       1 <0>        -0.5013
     19 C16         1.0080   -6.6649    1.6630 C.2       1 <0>         0.2635
     20 C17         0.1789   -7.2100    0.5677 C.2       1 <0>         0.5119
     21 O3         -0.0136   -8.3916    0.3606 O.2       1 <0>        -0.5336
     22 N1         -0.3331   -6.2036   -0.1663 N.am      1 <0>        -0.6098
     23 C18        -1.2048   -6.3440   -1.3353 C.3       1 <0>         0.1634
     24 C19        -0.3629   -6.4295   -2.5823 C.2       1 <0>        -0.1703
     25 C20        -0.5027   -7.4445   -3.3986 C.2       1 <0>        -0.1830
     26 O4          1.6689   -7.4003    2.5866 O.3       1 <0>        -0.6544
     27 C21         1.6985   -4.3892    2.4956 C.2       1 <0>         0.5071
     28 O5          2.9150   -4.3654    2.5206 O.2       1 <0>        -0.4770
     29 C22         0.9245   -3.4878    3.3715 C.ar      1 <0>        -0.1725
     30 C23        -0.4683   -3.5953    3.4328 C.ar      1 <0>        -0.0257
     31 C24        -1.1863   -2.7526    4.2510 C.ar      1 <0>        -0.1679
     32 C25        -0.5285   -1.7956    5.0157 C.ar      1 <0>         0.1370
     33 C26         0.8563   -1.6850    4.9573 C.ar      1 <0>        -0.2240
     34 C27         1.5825   -2.5279    4.1465 C.ar      1 <0>        -0.0346
     35 O6         -1.2401   -0.9669    5.8209 O.3       1 <0>        -0.3183
     36 C28        -0.5013   -0.0070    6.5791 C.3       1 <0>         0.0273
     37 H2          1.1886    1.7602   -1.2223 H         1 <0>         0.0640
     38 H3         -0.0868    1.4726   -2.4301 H         1 <0>         0.0636
     39 H4         -0.5231    1.8004   -0.7359 H         1 <0>         0.0748
     40 H5          0.5477   -0.3278   -0.0483 H         1 <0>         0.0609
     41 H6         -0.7277   -0.6154   -1.2561 H         1 <0>         0.0589
     42 H7         -0.0671   -2.3295   -0.2440 H         1 <0>         0.1312
     43 H8          2.1263   -5.8716   -1.1559 H         1 <0>         0.1224
     44 H9          3.4570   -4.6306   -2.8132 H         1 <0>         0.1287
     45 H10         4.8960   -3.2304   -3.3939 H         1 <0>         0.0591
     46 H11         3.7024   -3.6419   -4.6486 H         1 <0>         0.0606
     47 H12         4.1593   -1.4883   -5.7896 H         1 <0>         0.0723
     48 H13         5.3529   -1.0768   -4.5349 H         1 <0>         0.0726
     49 H14         6.6279   -3.1571   -5.1338 H         1 <0>         0.0730
     50 H15         6.0471   -4.3046   -7.2538 H         1 <0>         0.0554
     51 H16         4.7179   -4.4268   -6.0764 H         1 <0>         0.0572
     52 H17         4.6109   -3.2668   -7.4222 H         1 <0>         0.0561
     53 H18         7.2269   -0.9615   -6.1183 H         1 <0>         0.0555
     54 H19         7.5123   -2.2810   -7.2783 H         1 <0>         0.0557
     55 H20         6.0760   -1.2432   -7.4466 H         1 <0>         0.0552
     56 H21        -1.8014   -7.2509   -1.2368 H         1 <0>         0.0817
     57 H22        -1.8657   -5.4798   -1.4016 H         1 <0>         0.0818
     58 H23         0.3556   -5.6540   -2.8030 H         1 <0>         0.1150
     59 H24        -1.2212   -8.2200   -3.1780 H         1 <0>         0.0956
     60 H25         0.1007   -7.5057   -4.2923 H         1 <0>         0.0941
     61 H26        -0.9800   -4.3381    2.8389 H         1 <0>         0.1413
     62 H27        -2.2622   -2.8347    4.2987 H         1 <0>         0.1307
     63 H28         1.3634   -0.9399    5.5524 H         1 <0>         0.1265
     64 H29         2.6585   -2.4445    4.1054 H         1 <0>         0.1313
     65 H30         0.1987   -0.5235    7.2358 H         1 <0>         0.0552
     66 H31         0.0498    0.6451    5.9015 H         1 <0>         0.0548
     67 H32        -1.1890    0.5897    7.1785 H         1 <0>         0.0969
@<TRIPOS>BOND
     1    1    2 1
     2    1   37 1
     3    1   38 1
     4    1   39 1
     5    2    3 1
     6    2   40 1
     7    2   41 1
     8    3    4 1
     9    4    9 ar
    10    4    5 ar
    11    5    6 ar
    12    5   42 1
    13    6    7 ar
    14    6   16 1
    15    7    8 ar
    16    7   43 1
    17    8    9 ar
    18    8   44 1
    19    9   10 1
    20   10   11 1
    21   11   12 1
    22   11   45 1
    23   11   46 1
    24   12   13 1
    25   12   47 1
    26   12   48 1
    27   13   14 1
    28   13   15 1
    29   13   49 1
    30   14   50 1
    31   14   51 1
    32   14   52 1
    33   15   53 1
    34   15   54 1
    35   15   55 1
    36   16   17 1
    37   16   22 1
    38   16   18 1
    39   18   19 2
    40   18   27 1
    41   19   20 1
    42   19   26 1
    43   20   21 2
    44   20   22 am
    45   22   23 1
    46   23   24 1
    47   23   56 1
    48   23   57 1
    49   24   25 2
    50   24   58 1
    51   25   59 1
    52   25   60 1
    53   27   28 2
    54   27   29 1
    55   29   34 ar
    56   29   30 ar
    57   30   31 ar
    58   30   61 1
    59   31   32 ar
    60   31   62 1
    61   32   33 ar
    62   32   35 1
    63   33   34 ar
    64   33   63 1
    65   34   64 1
    66   35   36 1
    67   36   65 1
    68   36   66 1
    69   36   67 1
@<TRIPOS>MOLECULE
ZINC40102480
   65    67     0     0     0
SMALL
USER_CHARGES

@<TRIPOS>ATOM
      1 C1          0.0728    1.8817   -0.7148 C.3       1 <0>        -0.1502
      2 C2          0.1529    0.3604   -0.5725 C.3       1 <0>        -0.1207
      3 C3          0.9239   -0.2228   -1.7584 C.3       1 <0>        -0.1371
      4 C4          1.0039   -1.7441   -1.6161 C.3       1 <0>         0.1365
      5 N1          1.7421   -2.3026   -2.7516 N.am      1 <0>        -0.6108
      6 C5          1.1634   -2.7364   -4.0286 C.3       1 <0>         0.2675
      7 H1          0.6742   -1.8970   -4.5227 H         1 <0>         0.0689
      8 C6          2.3179   -3.2321   -4.8677 C.2       1 <0>        -0.5013
      9 C7          3.4363   -3.0848   -4.1194 C.2       1 <0>         0.2645
     10 C8          3.0712   -2.5031   -2.8103 C.2       1 <0>         0.5113
     11 O1          3.8552   -2.2464   -1.9183 O.2       1 <0>        -0.5356
     12 O2          4.6893   -3.4135   -4.5092 O.3       1 <0>        -0.6531
     13 C9          2.2416   -3.7694   -6.2294 C.2       1 <0>         0.5037
     14 O3          2.5148   -4.9363   -6.4391 O.2       1 <0>        -0.4673
     15 C10         1.8326   -2.8932   -7.3481 C.ar      1 <0>        -0.0969
     16 C11         1.6397   -1.5264   -7.1336 C.ar      1 <0>        -0.0997
     17 C12         1.2581   -0.7122   -8.1796 C.ar      1 <0>        -0.0987
     18 C13         1.0651   -1.2446   -9.4415 C.ar      1 <0>        -0.1955
     19 C14         1.2545   -2.6019   -9.6645 C.ar      1 <0>         0.1101
     20 C15         1.6435   -3.4276   -8.6233 C.ar      1 <0>        -0.1047
     21 O4          1.0633   -3.1193  -10.9066 O.3       1 <0>        -0.3123
     22 C16         0.6683   -2.2090  -11.9348 C.3       1 <0>         0.0866
     23 C17         0.5053   -2.9573  -13.2328 C.2       1 <0>        -0.1519
     24 C18        -0.5409   -2.7359  -13.9895 C.2       1 <0>        -0.1761
     25 C19         0.1738   -3.8492   -3.7975 C.ar      1 <0>        -0.0674
     26 C20         0.4937   -4.8911   -2.9468 C.ar      1 <0>        -0.0826
     27 C21        -0.4107   -5.9143   -2.7316 C.ar      1 <0>        -0.1717
     28 C22        -1.6411   -5.8969   -3.3686 C.ar      1 <0>         0.0910
     29 C23        -1.9632   -4.8480   -4.2245 C.ar      1 <0>         0.0955
     30 C24        -1.0540   -3.8231   -4.4321 C.ar      1 <0>        -0.1636
     31 O5         -3.1695   -4.8264   -4.8520 O.3       1 <0>        -0.3096
     32 C25        -3.4795   -3.6632   -5.6220 C.3       1 <0>         0.0277
     33 O6         -2.5317   -6.9029   -3.1583 O.3       1 <0>        -0.3039
     34 C26        -2.1329   -7.9466   -2.2674 C.3       1 <0>         0.0845
     35 C27        -3.2390   -8.9643   -2.1590 C.2       1 <0>        -0.1499
     36 C28        -2.9607  -10.2431   -2.2183 C.2       1 <0>        -0.1767
     37 H2          1.0799    2.2984   -0.7338 H         1 <0>         0.0536
     38 H3         -0.4420    2.1333   -1.6420 H         1 <0>         0.0526
     39 H4         -0.4764    2.2972    0.1301 H         1 <0>         0.0509
     40 H5          0.6678    0.1089    0.3547 H         1 <0>         0.0619
     41 H6         -0.8541   -0.0562   -0.5535 H         1 <0>         0.0608
     42 H7          0.4090    0.0287   -2.6856 H         1 <0>         0.0640
     43 H8          1.9309    0.1938   -1.7774 H         1 <0>         0.0668
     44 H9          1.5188   -1.9957   -0.6888 H         1 <0>         0.0761
     45 H10        -0.0031   -2.1608   -1.5970 H         1 <0>         0.0736
     46 H11         1.7888   -1.1076   -6.1494 H         1 <0>         0.1362
     47 H12         1.1092    0.3444   -8.0126 H         1 <0>         0.1252
     48 H13         0.7657   -0.6022  -10.2564 H         1 <0>         0.1236
     49 H14         1.7955   -4.4828   -8.7965 H         1 <0>         0.1368
     50 H15        -0.2786   -1.7425  -11.6630 H         1 <0>         0.0655
     51 H16         1.4318   -1.4400  -12.0522 H         1 <0>         0.0708
     52 H17         1.2510   -3.6759  -13.5391 H         1 <0>         0.1199
     53 H18        -1.2866   -2.0173  -13.6831 H         1 <0>         0.0987
     54 H19        -0.6577   -3.2722  -14.9196 H         1 <0>         0.1065
     55 H20         1.4523   -4.9058   -2.4497 H         1 <0>         0.1230
     56 H21        -0.1580   -6.7273   -2.0671 H         1 <0>         0.1299
     57 H22        -1.3031   -3.0060   -5.0930 H         1 <0>         0.1322
     58 H23        -2.7892   -3.5891   -6.4623 H         1 <0>         0.0538
     59 H24        -4.5007   -3.7367   -5.9961 H         1 <0>         0.0947
     60 H25        -3.3852   -2.7767   -4.9950 H         1 <0>         0.0530
     61 H26        -1.2330   -8.4275   -2.6509 H         1 <0>         0.0664
     62 H27        -1.9286   -7.5257   -1.2830 H         1 <0>         0.0696
     63 H28        -4.2612   -8.6395   -2.0323 H         1 <0>         0.1181
     64 H29        -3.7534  -10.9724   -2.1405 H         1 <0>         0.1056
     65 H30        -1.9385  -10.5679   -2.3450 H         1 <0>         0.0997
@<TRIPOS>BOND
     1    1    2 1
     2    1   37 1
     3    1   38 1
     4    1   39 1
     5    2    3 1
     6    2   40 1
     7    2   41 1
     8    3    4 1
     9    3   42 1
    10    3   43 1
    11    4    5 1
    12    4   44 1
    13    4   45 1
    14    5   10 am
    15    5    6 1
    16    6    7 1
    17    6    8 1
    18    6   25 1
    19    8    9 2
    20    8   13 1
    21    9   10 1
    22    9   12 1
    23   10   11 2
    24   13   14 2
    25   13   15 1
    26   15   20 ar
    27   15   16 ar
    28   16   17 ar
    29   16   46 1
    30   17   18 ar
    31   17   47 1
    32   18   19 ar
    33   18   48 1
    34   19   20 ar
    35   19   21 1
    36   20   49 1
    37   21   22 1
    38   22   23 1
    39   22   50 1
    40   22   51 1
    41   23   24 2
    42   23   52 1
    43   24   53 1
    44   24   54 1
    45   25   30 ar
    46   25   26 ar
    47   26   27 ar
    48   26   55 1
    49   27   28 ar
    50   27   56 1
    51   28   29 ar
    52   28   33 1
    53   29   30 ar
    54   29   31 1
    55   30   57 1
    56   31   32 1
    57   32   58 1
    58   32   59 1
    59   32   60 1
    60   33   34 1
    61   34   35 1
    62   34   61 1
    63   34   62 1
    64   35   36 2
    65   35   63 1
    66   36   64 1
    67   36   65 1
@<TRIPOS>MOLECULE
ZINC38429648
   81    82     0     0     0
SMALL
USER_CHARGES

@<TRIPOS>ATOM
      1 C1         -0.0184    1.5028    0.0103 C.3       1 <0>        -0.1215
      2 C2          0.0021   -0.0041    0.0020 C.2       1 <0>        -0.1166
      3 C3         -1.1543   -0.6804    0.0039 C.2       1 <0>        -0.1172
      4 C4         -1.1696   -2.1556   -0.0040 C.2       1 <0>         0.4225
      5 O1         -2.2266   -2.7544   -0.0026 O.2       1 <0>        -0.4194
      6 C5          0.1067   -2.9026   -0.0143 C.ar      1 <0>        -0.1248
      7 C6          0.1199   -4.2923   -0.0225 C.ar      1 <0>        -0.0675
      8 C7          1.3297   -4.9691   -0.0325 C.ar      1 <0>        -0.0981
      9 C8          2.5223   -4.2715   -0.0343 C.ar      1 <0>        -0.0986
     10 C9          2.5254   -2.8852   -0.0263 C.ar      1 <0>        -0.0671
     11 C10         1.3206   -2.1926   -0.0163 C.ar      1 <0>        -0.1255
     12 C11         1.2952   -0.7140   -0.0141 C.2       1 <0>         0.4225
     13 O2          2.3353   -0.0862   -0.0206 O.2       1 <0>        -0.4213
     14 C12        -2.4577    0.0761    0.0148 C.3       1 <0>        -0.0861
     15 C13        -2.9691    0.2317   -1.4187 C.3       1 <0>        -0.1078
     16 C14        -4.2923    0.9998   -1.4076 C.3       1 <0>        -0.0903
     17 H1         -4.9984    0.4975   -0.7464 H         1 <0>         0.0722
     18 C15        -4.0503    2.4252   -0.9072 C.3       1 <0>        -0.1522
     19 C16        -4.8662    1.0474   -2.8251 C.3       1 <0>        -0.1151
     20 C17        -6.2472    1.7054   -2.7943 C.3       1 <0>        -0.1215
     21 C18        -6.8211    1.7530   -4.2118 C.3       1 <0>        -0.1153
     22 C19        -8.2020    2.4110   -4.1810 C.3       1 <0>        -0.0917
     23 H2         -8.1272    3.3907   -3.7093 H         1 <0>         0.0677
     24 C20        -9.1677    1.5329   -3.3826 C.3       1 <0>        -0.1501
     25 C21        -8.7224    2.5717   -5.6108 C.3       1 <0>        -0.1152
     26 C22       -10.0448    3.3408   -5.5888 C.3       1 <0>        -0.1219
     27 C23       -10.5651    3.5016   -7.0186 C.3       1 <0>        -0.1152
     28 C24       -11.8876    4.2707   -6.9966 C.3       1 <0>        -0.0920
     29 H3        -11.7484    5.2180   -6.4757 H         1 <0>         0.0677
     30 C25       -12.9483    3.4406   -6.2708 C.3       1 <0>        -0.1501
     31 C26       -12.3448    4.5402   -8.4316 C.3       1 <0>        -0.1153
     32 C27       -13.5996    5.4153   -8.4113 C.3       1 <0>        -0.1225
     33 C28       -14.0568    5.6848   -9.8463 C.3       1 <0>        -0.1155
     34 C29       -15.3116    6.5600   -9.8259 C.3       1 <0>        -0.0984
     35 C30       -14.9662    7.9333   -9.2465 C.3       1 <0>        -0.1496
     36 C31       -15.8404    6.7265  -11.2519 C.3       1 <0>        -0.1490
     37 H4          1.0042    1.8801    0.0026 H         1 <0>         0.0812
     38 H5         -0.5455    1.8639   -0.8728 H         1 <0>         0.0833
     39 H6         -0.5286    1.8543    0.9071 H         1 <0>         0.0837
     40 H7         -0.8091   -4.8430   -0.0207 H         1 <0>         0.1437
     41 H8          1.3401   -6.0490   -0.0385 H         1 <0>         0.1392
     42 H9          3.4586   -4.8099   -0.0418 H         1 <0>         0.1393
     43 H10         3.4608   -2.3454   -0.0275 H         1 <0>         0.1438
     44 H11        -3.1915   -0.4730    0.6048 H         1 <0>         0.0851
     45 H12        -2.3021    1.0615    0.4541 H         1 <0>         0.0884
     46 H13        -2.2352    0.7807   -2.0087 H         1 <0>         0.0647
     47 H14        -3.1246   -0.7537   -1.8580 H         1 <0>         0.0663
     48 H15        -3.3442    2.9275   -1.5685 H         1 <0>         0.0545
     49 H16        -4.9930    2.9724   -0.8993 H         1 <0>         0.0578
     50 H17        -3.6414    2.3913    0.1026 H         1 <0>         0.0551
     51 H18        -4.2021    1.6264   -3.4668 H         1 <0>         0.0610
     52 H19        -4.9555    0.0335   -3.2152 H         1 <0>         0.0610
     53 H20        -6.9113    1.1263   -2.1527 H         1 <0>         0.0634
     54 H21        -6.1579    2.7192   -2.4042 H         1 <0>         0.0631
     55 H22        -6.1570    2.3320   -4.8535 H         1 <0>         0.0597
     56 H23        -6.9104    0.7391   -4.6019 H         1 <0>         0.0602
     57 H24        -9.2425    0.5531   -3.8543 H         1 <0>         0.0526
     58 H25        -8.7970    1.4184   -2.3640 H         1 <0>         0.0551
     59 H26       -10.1515    2.0017   -3.3607 H         1 <0>         0.0546
     60 H27        -7.9918    3.1221   -6.2036 H         1 <0>         0.0594
     61 H28        -8.8815    1.5879   -6.0523 H         1 <0>         0.0601
     62 H29       -10.7754    2.7904   -4.9960 H         1 <0>         0.0664
     63 H30        -9.8857    4.3246   -5.1473 H         1 <0>         0.0588
     64 H31        -9.8346    4.0520   -7.6114 H         1 <0>         0.0595
     65 H32       -10.7243    2.5178   -7.4601 H         1 <0>         0.0602
     66 H33       -12.6226    3.2486   -5.2485 H         1 <0>         0.0548
     67 H34       -13.8905    3.9885   -6.2552 H         1 <0>         0.0549
     68 H35       -13.0875    2.4933   -6.7918 H         1 <0>         0.0526
     69 H36       -11.5520    5.0543   -8.9750 H         1 <0>         0.0598
     70 H37       -12.5693    3.5945   -8.9251 H         1 <0>         0.0601
     71 H38       -14.3924    4.9012   -7.8679 H         1 <0>         0.0628
     72 H39       -13.3751    6.3610   -7.9178 H         1 <0>         0.0627
     73 H40       -13.2640    6.1990  -10.3897 H         1 <0>         0.0604
     74 H41       -14.2813    4.7392  -10.3397 H         1 <0>         0.0601
     75 H42       -16.0748    6.0866   -9.2083 H         1 <0>         0.0678
     76 H43       -14.2030    8.4067   -9.8641 H         1 <0>         0.0533
     77 H44       -15.8602    8.5568   -9.2320 H         1 <0>         0.0522
     78 H45       -14.5894    7.8147   -8.2306 H         1 <0>         0.0563
     79 H46       -16.0865    5.7481  -11.6647 H         1 <0>         0.0533
     80 H47       -16.7344    7.3500  -11.2374 H         1 <0>         0.0536
     81 H48       -15.0772    7.1999  -11.8696 H         1 <0>         0.0536
@<TRIPOS>BOND
     1    1    2 1
     2    1   37 1
     3    1   38 1
     4    1   39 1
     5    2   12 1
     6    2    3 2
     7    3    4 1
     8    3   14 1
     9    4    5 2
    10    4    6 1
    11    6   11 ar
    12    6    7 ar
    13    7    8 ar
    14    7   40 1
    15    8    9 ar
    16    8   41 1
    17    9   10 ar
    18    9   42 1
    19   10   11 ar
    20   10   43 1
    21   11   12 1
    22   12   13 2
    23   14   15 1
    24   14   44 1
    25   14   45 1
    26   15   16 1
    27   15   46 1
    28   15   47 1
    29   16   17 1
    30   16   18 1
    31   16   19 1
    32   18   48 1
    33   18   49 1
    34   18   50 1
    35   19   20 1
    36   19   51 1
    37   19   52 1
    38   20   21 1
    39   20   53 1
    40   20   54 1
    41   21   22 1
    42   21   55 1
    43   21   56 1
    44   22   23 1
    45   22   24 1
    46   22   25 1
    47   24   57 1
    48   24   58 1
    49   24   59 1
    50   25   26 1
    51   25   60 1
    52   25   61 1
    53   26   27 1
    54   26   62 1
    55   26   63 1
    56   27   28 1
    57   27   64 1
    58   27   65 1
    59   28   29 1
    60   28   30 1
    61   28   31 1
    62   30   66 1
    63   30   67 1
    64   30   68 1
    65   31   32 1
    66   31   69 1
    67   31   70 1
    68   32   33 1
    69   32   71 1
    70   32   72 1
    71   33   34 1
    72   33   73 1
    73   33   74 1
    74   34   35 1
    75   34   36 1
    76   34   75 1
    77   35   76 1
    78   35   77 1
    79   35   78 1
    80   36   79 1
    81   36   80 1
    82   36   81 1
@<TRIPOS>MOLECULE
ZINC33532337
   70    73     0     0     0
SMALL
USER_CHARGES
(4Z,5S)-1-benzyl-5-(4-butoxy-3-methoxy-phenyl)-4-[(3-ethoxyphenyl)-hydroxy-methylene]pyrrolidine-2,3-dione
@<TRIPOS>ATOM
      1 C1         -7.7401   -2.4720   -4.5811 C.3       1 <0>        -0.1527
      2 C2         -6.3498   -2.5441   -3.9467 C.3       1 <0>        -0.1217
      3 C3         -5.4822   -1.4062   -4.4883 C.3       1 <0>        -0.1190
      4 C4         -4.0918   -1.4784   -3.8539 C.3       1 <0>         0.0592
      5 O1         -3.2817   -0.4156   -4.3599 O.3       1 <0>        -0.3075
      6 C5         -2.0066   -0.3357   -3.8939 C.ar      1 <0>         0.0929
      7 C6         -1.5456   -1.2601   -2.9704 C.ar      1 <0>        -0.1750
      8 C7         -0.2472   -1.1810   -2.5022 C.ar      1 <0>        -0.1081
      9 C8          0.5904   -0.1741   -2.9449 C.ar      1 <0>        -0.0640
     10 C9          0.1368    0.7514   -3.8663 C.ar      1 <0>        -0.1266
     11 C10        -1.1618    0.6744   -4.3438 C.ar      1 <0>         0.1026
     12 O2         -1.6094    1.5839   -5.2504 O.3       1 <0>        -0.3080
     13 C11        -0.7267    2.6576   -5.5825 C.3       1 <0>         0.0248
     14 C12         2.0029   -0.0889   -2.4267 C.3       1 <0>         0.2568
     15 H1          2.1341   -0.8470   -1.6405 H         1 <0>         0.0708
     16 C13         2.9806   -0.2758   -3.5639 C.2       1 <0>        -0.4956
     17 C14         3.1016   -1.3816   -4.3796 C.2       1 <0>         0.3835
     18 C15         2.3131   -2.5944   -4.0986 C.ar      1 <0>        -0.0248
     19 C16         1.5935   -3.2176   -5.1235 C.ar      1 <0>        -0.1198
     20 C17         0.8571   -4.3521   -4.8559 C.ar      1 <0>        -0.0867
     21 C18         0.8270   -4.8773   -3.5763 C.ar      1 <0>        -0.2116
     22 C19         1.5382   -4.2666   -2.5516 C.ar      1 <0>         0.1196
     23 C20         2.2857   -3.1302   -2.8081 C.ar      1 <0>        -0.1285
     24 O3          1.5048   -4.7885   -1.2972 O.3       1 <0>        -0.3175
     25 C21         0.7181   -5.9659   -1.1051 C.3       1 <0>         0.0549
     26 C22         0.8022   -6.4022    0.3590 C.3       1 <0>        -0.1533
     27 O4          3.9425   -1.3528   -5.4354 O.2       1 <0>        -0.6094
     28 C23         3.7411    0.9036   -3.6226 C.2       1 <0>         0.3745
     29 O5          4.6374    1.1371   -4.4127 O.3       1 <0>        -0.4776
     30 C24         3.2610    1.8184   -2.5512 C.2       1 <0>         0.4772
     31 O6          3.7090    2.9245   -2.3284 O.2       1 <0>        -0.5312
     32 N1          2.2542    1.2442   -1.8716 N.am      1 <0>        -0.5941
     33 C25         1.5322    1.8481   -0.7490 C.3       1 <0>         0.1679
     34 C26         0.3450    2.6160   -1.2702 C.ar      1 <0>        -0.1021
     35 C27        -0.8765    1.9852   -1.4157 C.ar      1 <0>        -0.0887
     36 C28        -1.9641    2.6881   -1.8991 C.ar      1 <0>        -0.1164
     37 C29        -1.8332    4.0246   -2.2267 C.ar      1 <0>        -0.1176
     38 C30        -0.6118    4.6553   -2.0817 C.ar      1 <0>        -0.1290
     39 C31         0.4773    3.9511   -1.6033 C.ar      1 <0>        -0.0992
     40 H2         -8.3638   -3.2901   -4.1916 H         1 <0>         0.0552
     41 H3         -7.6502   -2.5674   -5.6732 H         1 <0>         0.0558
     42 H4         -8.2060   -1.5065   -4.3345 H         1 <0>         0.0553
     43 H5         -6.4397   -2.4487   -2.8545 H         1 <0>         0.0638
     44 H6         -5.8839   -3.5096   -4.1932 H         1 <0>         0.0643
     45 H7         -5.3923   -1.5017   -5.5805 H         1 <0>         0.0729
     46 H8         -5.9480   -0.4407   -4.2418 H         1 <0>         0.0721
     47 H9         -4.1817   -1.3829   -2.7618 H         1 <0>         0.0567
     48 H10        -3.6260   -2.4439   -4.1004 H         1 <0>         0.0579
     49 H11        -2.1992   -2.0450   -2.6196 H         1 <0>         0.1245
     50 H12         0.1124   -1.9050   -1.7861 H         1 <0>         0.1209
     51 H13         0.7943    1.5346   -4.2135 H         1 <0>         0.1247
     52 H14        -1.2099    3.3144   -6.3209 H         1 <0>         0.0947
     53 H15         0.2028    2.2502   -6.0068 H         1 <0>         0.0547
     54 H16        -0.4937    3.2346   -4.6754 H         1 <0>         0.0544
     55 H17         1.6144   -2.8102   -6.1235 H         1 <0>         0.1222
     56 H18         0.3021   -4.8327   -5.6480 H         1 <0>         0.1184
     57 H19         0.2482   -5.7662   -3.3734 H         1 <0>         0.1190
     58 H20         2.8427   -2.6571   -2.0130 H         1 <0>         0.1315
     59 H21        -0.3295   -5.7533   -1.3648 H         1 <0>         0.0587
     60 H22         1.0996   -6.7711   -1.7502 H         1 <0>         0.0585
     61 H23         0.1966   -7.3085    0.5069 H         1 <0>         0.0746
     62 H24         0.4207   -5.5970    1.0040 H         1 <0>         0.0659
     63 H25         1.8498   -6.6147    0.6186 H         1 <0>         0.0658
     64 H26         2.2023    2.5320   -0.2075 H         1 <0>         0.0878
     65 H27         1.1867    1.0571   -0.0672 H         1 <0>         0.0848
     66 H28        -0.9798    0.9421   -1.1558 H         1 <0>         0.1191
     67 H29        -2.9173    2.1941   -2.0169 H         1 <0>         0.1139
     68 H30        -2.6841    4.5750   -2.6002 H         1 <0>         0.1143
     69 H31        -0.5083    5.6984   -2.3420 H         1 <0>         0.1162
     70 H32         1.4317    4.4438   -1.4900 H         1 <0>         0.1222
@<TRIPOS>BOND
     1    1    2 1
     2    1   40 1
     3    1   41 1
     4    1   42 1
     5    2    3 1
     6    2   43 1
     7    2   44 1
     8    3    4 1
     9    3   45 1
    10    3   46 1
    11    4    5 1
    12    4   47 1
    13    4   48 1
    14    5    6 1
    15    6   11 ar
    16    6    7 ar
    17    7    8 ar
    18    7   49 1
    19    8    9 ar
    20    8   50 1
    21    9   10 ar
    22    9   14 1
    23   10   11 ar
    24   10   51 1
    25   11   12 1
    26   12   13 1
    27   13   52 1
    28   13   53 1
    29   13   54 1
    30   14   16 1
    31   14   32 1
    32   14   15 1
    33   16   28 2
    34   16   17 1
    35   17   27 2
    36   17   18 1
    37   18   23 ar
    38   18   19 ar
    39   19   20 ar
    40   19   55 1
    41   20   21 ar
    42   20   56 1
    43   21   22 ar
    44   21   57 1
    45   22   23 ar
    46   22   24 1
    47   23   58 1
    48   24   25 1
    49   25   26 1
    50   25   59 1
    51   25   60 1
    52   26   61 1
    53   26   62 1
    54   26   63 1
    55   28   30 1
    56   28   29 1
    57   30   32 am
    58   30   31 2
    59   32   33 1
    60   33   34 1
    61   33   64 1
    62   33   65 1
    63   34   39 ar
    64   34   35 ar
    65   35   36 ar
    66   35   66 1
    67   36   37 ar
    68   36   67 1
    69   37   38 ar
    70   37   68 1
    71   38   39 ar
    72   38   69 1
    73   39   70 1
@<TRIPOS>MOLECULE
ZINC40006466
   67    69     0     0     0
SMALL
USER_CHARGES

@<TRIPOS>ATOM
      1 C1          0.1453    1.3301    0.7690 C.ar      1 <0>        -0.1275
      2 C2          1.0103    2.1154    0.0294 C.ar      1 <0>        -0.0875
      3 C3          1.8339    1.5350   -0.9162 C.ar      1 <0>        -0.1511
      4 C4          1.7927    0.1663   -1.1230 C.ar      1 <0>         0.1052
      5 C5          0.9263   -0.6189   -0.3818 C.ar      1 <0>        -0.1291
      6 C6          0.1034   -0.0361    0.5635 C.ar      1 <0>        -0.0695
      7 C7          0.8801   -2.1084   -0.6060 C.3       1 <0>         0.1045
      8 O1         -0.0844   -2.6925    0.2719 O.3       1 <0>        -0.3050
      9 C8         -0.2512   -4.0378    0.1970 C.ar      1 <0>         0.1630
     10 C9          0.5055   -4.7803   -0.7022 C.ar      1 <0>        -0.2219
     11 C10         0.3406   -6.1447   -0.7824 C.ar      1 <0>        -0.0339
     12 C11        -0.5913   -6.7845    0.0443 C.ar      1 <0>        -0.1450
     13 C12        -1.3505   -6.0315    0.9486 C.ar      1 <0>        -0.0012
     14 C13        -1.1739   -4.6683    1.0237 C.ar      1 <0>        -0.1577
     15 C14        -0.7720   -8.2395   -0.0371 C.2       1 <0>         0.1054
     16 C15        -2.0143   -8.7761    0.0692 C.2       1 <0>        -0.2541
     17 C16        -3.3299   -8.1062    0.0958 C.2       1 <0>         0.5369
     18 O2         -3.4329   -6.8960    0.0174 O.2       1 <0>        -0.4448
     19 N1         -4.3907   -8.8878    0.2086 N.am      1 <0>        -0.5201
     20 C17        -4.2721  -10.2284    0.2947 C.2       1 <0>         0.2817
     21 S1         -5.5133  -11.3981    0.4435 S.2       1 <0>        -0.3294
     22 S2         -2.5078  -10.4887    0.2077 S.3       1 <0>         0.0610
     23 C18        -5.7248   -8.2835    0.2412 C.3       1 <0>         0.0827
     24 C19        -6.2692   -8.1721   -1.1843 C.3       1 <0>        -0.1303
     25 C20        -7.6626   -7.5410   -1.1502 C.3       1 <0>        -0.1130
     26 C21        -8.2070   -7.4296   -2.5757 C.3       1 <0>        -0.1178
     27 C22        -9.6004   -6.7985   -2.5417 C.3       1 <0>        -0.1196
     28 C23       -10.1448   -6.6871   -3.9672 C.3       1 <0>        -0.1192
     29 C24       -11.5382   -6.0560   -3.9331 C.3       1 <0>        -0.1190
     30 C25       -12.0826   -5.9446   -5.3586 C.3       1 <0>        -0.1207
     31 C26       -13.4759   -5.3135   -5.3246 C.3       1 <0>        -0.0934
     32 C27       -14.0203   -5.2021   -6.7501 C.3       1 <0>        -0.1841
     33 C28       -15.3928   -4.5805   -6.7165 C.2       1 <0>         0.4875
     34 O3        -15.8894   -4.2567   -5.6512 O.co2     1 <0>        -0.7000
     35 O4        -16.0064   -4.4015   -7.7547 O.co2     1 <0>        -0.7101
     36 F1          2.5972   -0.4022   -2.0475 F         1 <0>        -0.1369
     37 H1         -0.4948    1.7841    1.5110 H         1 <0>         0.1337
     38 H2          1.0419    3.1828    0.1905 H         1 <0>         0.1356
     39 H3          2.5091    2.1486   -1.4941 H         1 <0>         0.1394
     40 H4         -0.5723   -0.6485    1.1421 H         1 <0>         0.1426
     41 H5          0.6006   -2.3117   -1.6397 H         1 <0>         0.0827
     42 H6          1.8617   -2.5369   -0.4040 H         1 <0>         0.0823
     43 H7          1.2239   -4.2859   -1.3393 H         1 <0>         0.1347
     44 H8          0.9285   -6.7206   -1.4818 H         1 <0>         0.1343
     45 H9         -2.0708   -6.5198    1.5882 H         1 <0>         0.1294
     46 H10        -1.7562   -4.0871    1.7234 H         1 <0>         0.1365
     47 H11         0.0835   -8.8826   -0.1815 H         1 <0>         0.1584
     48 H12        -6.3916   -8.9069    0.8371 H         1 <0>         0.1134
     49 H13        -5.6630   -7.2900    0.6852 H         1 <0>         0.1046
     50 H14        -5.6025   -7.5487   -1.7801 H         1 <0>         0.0671
     51 H15        -6.3311   -9.1656   -1.6283 H         1 <0>         0.0736
     52 H16        -8.3293   -8.1644   -0.5544 H         1 <0>         0.0698
     53 H17        -7.6007   -6.5475   -0.7062 H         1 <0>         0.0656
     54 H18        -7.5403   -6.8062   -3.1716 H         1 <0>         0.0598
     55 H19        -8.2689   -8.4231   -3.0197 H         1 <0>         0.0623
     56 H20       -10.2671   -7.4219   -1.9458 H         1 <0>         0.0622
     57 H21        -9.5385   -5.8050   -2.0977 H         1 <0>         0.0607
     58 H22        -9.4781   -6.0637   -4.5630 H         1 <0>         0.0579
     59 H23       -10.2067   -7.6806   -4.4112 H         1 <0>         0.0590
     60 H24       -12.2049   -6.6794   -3.3373 H         1 <0>         0.0599
     61 H25       -11.4763   -5.0625   -3.4891 H         1 <0>         0.0593
     62 H26       -11.4158   -5.3212   -5.9545 H         1 <0>         0.0533
     63 H27       -12.1444   -6.9381   -5.8027 H         1 <0>         0.0538
     64 H28       -14.1426   -5.9369   -4.7287 H         1 <0>         0.0572
     65 H29       -13.4141   -4.3200   -4.8806 H         1 <0>         0.0569
     66 H30       -13.3536   -4.5787   -7.3459 H         1 <0>         0.0538
     67 H31       -14.0822   -6.1957   -7.1941 H         1 <0>         0.0540
@<TRIPOS>BOND
     1    1    6 ar
     2    1    2 ar
     3    1   37 1
     4    2    3 ar
     5    2   38 1
     6    3    4 ar
     7    3   39 1
     8    4    5 ar
     9    4   36 1
    10    5    6 ar
    11    5    7 1
    12    6   40 1
    13    7    8 1
    14    7   41 1
    15    7   42 1
    16    8    9 1
    17    9   14 ar
    18    9   10 ar
    19   10   11 ar
    20   10   43 1
    21   11   12 ar
    22   11   44 1
    23   12   13 ar
    24   12   15 1
    25   13   14 ar
    26   13   45 1
    27   14   46 1
    28   15   16 2
    29   15   47 1
    30   16   22 1
    31   16   17 1
    32   17   18 2
    33   17   19 am
    34   19   20 1
    35   19   23 1
    36   20   21 2
    37   20   22 1
    38   23   24 1
    39   23   48 1
    40   23   49 1
    41   24   25 1
    42   24   50 1
    43   24   51 1
    44   25   26 1
    45   25   52 1
    46   25   53 1
    47   26   27 1
    48   26   54 1
    49   26   55 1
    50   27   28 1
    51   27   56 1
    52   27   57 1
    53   28   29 1
    54   28   58 1
    55   28   59 1
    56   29   30 1
    57   29   60 1
    58   29   61 1
    59   30   31 1
    60   30   62 1
    61   30   63 1
    62   31   32 1
    63   31   64 1
    64   31   65 1
    65   32   33 1
    66   32   66 1
    67   32   67 1
    68   33   34 2
    69   33   35 1
@<TRIPOS>MOLECULE
ZINC40083814
   72    74     0     0     0
SMALL
USER_CHARGES

@<TRIPOS>ATOM
      1 C1          3.2288    1.9095    1.3647 C.3       1 <0>        -0.1508
      2 C2          3.5437    0.4132    1.4191 C.3       1 <0>        -0.1213
      3 C3          2.3298   -0.3440    1.9615 C.3       1 <0>        -0.1182
      4 C4          2.6447   -1.8402    2.0160 C.3       1 <0>         0.0608
      5 O1          1.5110   -2.5475    2.5225 O.3       1 <0>        -0.3167
      6 C5          1.6254   -3.8949    2.6350 C.ar      1 <0>         0.1328
      7 C6          2.8109   -4.5231    2.2693 C.ar      1 <0>        -0.2058
      8 C7          2.9312   -5.8896    2.3822 C.ar      1 <0>        -0.0442
      9 C8          1.8591   -6.6463    2.8656 C.ar      1 <0>        -0.1395
     10 C9          0.6691   -6.0108    3.2322 C.ar      1 <0>        -0.0203
     11 C10         0.5590   -4.6429    3.1211 C.ar      1 <0>        -0.1575
     12 C11        -0.4897   -6.8212    3.7533 C.3       1 <0>        -0.1248
     13 C12         1.9835   -8.1121    2.9880 C.2       1 <0>         0.4679
     14 O2          2.6392   -8.5936    3.8932 O.2       1 <0>        -0.4888
     15 C13         1.3171   -8.9879    2.0190 C.2       1 <0>        -0.4771
     16 C14         1.2548  -10.3390    2.0617 C.2       1 <0>         0.2778
     17 C15         0.4899  -10.8270    0.8950 C.2       1 <0>         0.5068
     18 O3          0.2596  -11.9948    0.6511 O.2       1 <0>        -0.5386
     19 N1          0.0862   -9.7870    0.1430 N.am      1 <0>        -0.6002
     20 C16         0.5621   -8.5554    0.7838 C.3       1 <0>         0.2563
     21 H1         -0.2822   -7.9247    1.0622 H         1 <0>         0.0821
     22 C17         1.4804   -7.8105   -0.1505 C.ar      1 <0>        -0.0263
     23 C18         2.4479   -8.4969   -0.8611 C.ar      1 <0>        -0.1342
     24 C19         3.2919   -7.8165   -1.7190 C.ar      1 <0>        -0.0866
     25 C20         3.1707   -6.4483   -1.8681 C.ar      1 <0>        -0.2198
     26 C21         2.2010   -5.7574   -1.1564 C.ar      1 <0>         0.1274
     27 C22         1.3512   -6.4435   -0.3006 C.ar      1 <0>        -0.1280
     28 O4          2.0798   -4.4116   -1.3013 O.3       1 <0>        -0.3126
     29 C23         2.9847   -3.7722   -2.2038 C.3       1 <0>         0.0596
     30 C24         2.6978   -2.2696   -2.2343 C.3       1 <0>        -0.1133
     31 C25         3.6666   -1.5850   -3.2006 C.3       1 <0>        -0.0931
     32 C26         3.3996   -2.0771   -4.6245 C.3       1 <0>        -0.1528
     33 C27         3.4636   -0.0698   -3.1381 C.3       1 <0>        -0.1459
     34 C28        -0.6956   -9.8691   -1.0932 C.3       1 <0>         0.1359
     35 C29        -2.1874   -9.8166   -0.7577 C.3       1 <0>         0.0592
     36 O5         -2.5043   -8.5423   -0.1939 O.3       1 <0>        -0.5629
     37 O6          1.8053  -11.1193    3.0203 O.3       1 <0>        -0.6122
     38 H2          2.9948    2.2683    2.3670 H         1 <0>         0.0547
     39 H3          4.0935    2.4489    0.9783 H         1 <0>         0.0548
     40 H4          2.3736    2.0772    0.7099 H         1 <0>         0.0552
     41 H5          3.7776    0.0544    0.4168 H         1 <0>         0.0642
     42 H6          4.3988    0.2455    2.0739 H         1 <0>         0.0635
     43 H7          2.0959    0.0148    2.9638 H         1 <0>         0.0712
     44 H8          1.4747   -0.1763    1.3068 H         1 <0>         0.0726
     45 H9          2.8787   -2.1990    1.0137 H         1 <0>         0.0618
     46 H10         3.4999   -2.0080    2.6707 H         1 <0>         0.0567
     47 H11         3.6383   -3.9380    1.8957 H         1 <0>         0.1186
     48 H12         3.8521   -6.3767    2.0976 H         1 <0>         0.1177
     49 H13        -0.3586   -4.1507    3.4079 H         1 <0>         0.1257
     50 H14        -0.4633   -6.8339    4.8429 H         1 <0>         0.0696
     51 H15        -1.4256   -6.3745    3.4177 H         1 <0>         0.0663
     52 H16        -0.4182   -7.8414    3.3763 H         1 <0>         0.0852
     53 H17         2.5447   -9.5664   -0.7455 H         1 <0>         0.1161
     54 H18         4.0467   -8.3548   -2.2729 H         1 <0>         0.1166
     55 H19         3.8307   -5.9170   -2.5378 H         1 <0>         0.1170
     56 H20         0.5923   -5.9086    0.2510 H         1 <0>         0.1247
     57 H21         4.0090   -3.9399   -1.8709 H         1 <0>         0.0560
     58 H22         2.8549   -4.1873   -3.2033 H         1 <0>         0.0594
     59 H23         1.6735   -2.1020   -2.5672 H         1 <0>         0.0731
     60 H24         2.8276   -1.8546   -1.2348 H         1 <0>         0.0717
     61 H25         4.6917   -1.8262   -2.9191 H         1 <0>         0.0712
     62 H26         2.3746   -1.8359   -4.9060 H         1 <0>         0.0566
     63 H27         4.0898   -1.5894   -5.3129 H         1 <0>         0.0549
     64 H28         3.5442   -3.1565   -4.6690 H         1 <0>         0.0562
     65 H29         3.6539    0.2807   -2.1237 H         1 <0>         0.0561
     66 H30         4.1538    0.4179   -3.8265 H         1 <0>         0.0552
     67 H31         2.4386    0.1713   -3.4197 H         1 <0>         0.0557
     68 H32        -0.4393   -9.0312   -1.7415 H         1 <0>         0.0823
     69 H33        -0.4708  -10.8055   -1.6038 H         1 <0>         0.0911
     70 H34        -2.7698   -9.9666   -1.6667 H         1 <0>         0.0502
     71 H35        -2.4262  -10.6011   -0.0396 H         1 <0>         0.0494
     72 H36        -3.4358   -8.4379    0.0436 H         1 <0>         0.3731
@<TRIPOS>BOND
     1    1    2 1
     2    1   38 1
     3    1   39 1
     4    1   40 1
     5    2    3 1
     6    2   41 1
     7    2   42 1
     8    3    4 1
     9    3   43 1
    10    3   44 1
    11    4    5 1
    12    4   45 1
    13    4   46 1
    14    5    6 1
    15    6   11 ar
    16    6    7 ar
    17    7    8 ar
    18    7   47 1
    19    8    9 ar
    20    8   48 1
    21    9   10 ar
    22    9   13 1
    23   10   11 ar
    24   10   12 1
    25   11   49 1
    26   12   50 1
    27   12   51 1
    28   12   52 1
    29   13   14 2
    30   13   15 1
    31   15   20 1
    32   15   16 2
    33   16   17 1
    34   16   37 1
    35   17   18 2
    36   17   19 am
    37   19   20 1
    38   19   34 1
    39   20   21 1
    40   20   22 1
    41   22   27 ar
    42   22   23 ar
    43   23   24 ar
    44   23   53 1
    45   24   25 ar
    46   24   54 1
    47   25   26 ar
    48   25   55 1
    49   26   27 ar
    50   26   28 1
    51   27   56 1
    52   28   29 1
    53   29   30 1
    54   29   57 1
    55   29   58 1
    56   30   31 1
    57   30   59 1
    58   30   60 1
    59   31   32 1
    60   31   33 1
    61   31   61 1
    62   32   62 1
    63   32   63 1
    64   32   64 1
    65   33   65 1
    66   33   66 1
    67   33   67 1
    68   34   35 1
    69   34   68 1
    70   34   69 1
    71   35   36 1
    72   35   70 1
    73   35   71 1
    74   36   72 1
@<TRIPOS>MOLECULE
ZINC40101531
   71    73     0     0     0
SMALL
USER_CHARGES

@<TRIPOS>ATOM
      1 C1         -0.0049    1.7310    0.5089 C.3       1 <0>        -0.1493
      2 C2         -0.0299    0.2436    0.8663 C.3       1 <0>        -0.1194
      3 C3         -1.3941   -0.3456    0.5018 C.3       1 <0>        -0.1446
      4 C4         -1.4192   -1.8331    0.8592 C.3       1 <0>         0.1381
      5 N1         -2.7254   -2.3972    0.5102 N.am      1 <0>        -0.6108
      6 C5         -3.9018   -2.4574    1.3856 C.3       1 <0>         0.2626
      7 H1         -3.6785   -3.0494    2.2732 H         1 <0>         0.0721
      8 C6         -4.9934   -3.1216    0.5795 C.2       1 <0>        -0.5011
      9 C7         -4.4658   -3.4034   -0.6349 C.2       1 <0>         0.2649
     10 C8         -3.0604   -2.9464   -0.6714 C.2       1 <0>         0.5117
     11 O1         -2.3170   -3.0534   -1.6264 O.2       1 <0>        -0.5356
     12 O2         -5.1218   -4.0035   -1.6545 O.3       1 <0>        -0.6529
     13 C9         -6.3602   -3.4063    1.0263 C.2       1 <0>         0.5046
     14 O3         -7.3016   -2.8414    0.5021 O.2       1 <0>        -0.4685
     15 C10        -6.5946   -4.3801    2.1140 C.ar      1 <0>        -0.0970
     16 C11        -5.5198   -5.0657    2.6849 C.ar      1 <0>        -0.1002
     17 C12        -5.7423   -5.9734    3.6994 C.ar      1 <0>        -0.0987
     18 C13        -7.0275   -6.2080    4.1539 C.ar      1 <0>        -0.1949
     19 C14        -8.1023   -5.5314    3.5926 C.ar      1 <0>         0.1109
     20 C15        -7.8900   -4.6134    2.5780 C.ar      1 <0>        -0.1052
     21 O4         -9.3628   -5.7661    4.0434 O.3       1 <0>        -0.3172
     22 C16        -9.5079   -6.7213    5.0963 C.3       1 <0>         0.0592
     23 C17       -10.9866   -6.8505    5.4674 C.3       1 <0>        -0.1245
     24 C18       -11.1420   -7.8732    6.5947 C.3       1 <0>        -0.1489
     25 C19        -4.3231   -1.0664    1.7837 C.ar      1 <0>        -0.0330
     26 C20        -4.4607   -0.0839    0.8203 C.ar      1 <0>        -0.1159
     27 C21        -4.8471    1.1931    1.1822 C.ar      1 <0>        -0.0856
     28 C22        -5.0964    1.4910    2.5081 C.ar      1 <0>        -0.2144
     29 C23        -4.9591    0.5073    3.4764 C.ar      1 <0>         0.1232
     30 C24        -4.5771   -0.7752    3.1098 C.ar      1 <0>        -0.1454
     31 O5         -5.2038    0.7979    4.7813 O.3       1 <0>        -0.3180
     32 C25        -5.5988    2.1372    5.0847 C.3       1 <0>         0.0597
     33 C26        -5.8280    2.2724    6.5913 C.3       1 <0>        -0.1144
     34 C27        -6.2510    3.7065    6.9162 C.3       1 <0>        -0.0934
     35 C28        -7.6085    3.9960    6.2726 C.3       1 <0>        -0.1539
     36 C29        -6.3593    3.8750    8.4330 C.3       1 <0>        -0.1463
     37 H2          0.9670    2.1508    0.7686 H         1 <0>         0.0498
     38 H3         -0.1784    1.8507   -0.5605 H         1 <0>         0.0529
     39 H4         -0.7854    2.2513    1.0641 H         1 <0>         0.0525
     40 H5          0.7506   -0.2767    0.3111 H         1 <0>         0.0601
     41 H6          0.1436    0.1238    1.9357 H         1 <0>         0.0595
     42 H7         -2.1746    0.1746    1.0570 H         1 <0>         0.0747
     43 H8         -1.5676   -0.2259   -0.5676 H         1 <0>         0.0645
     44 H9         -0.6387   -2.3533    0.3040 H         1 <0>         0.0764
     45 H10        -1.2457   -1.9528    1.9286 H         1 <0>         0.0726
     46 H11        -4.5151   -4.8854    2.3320 H         1 <0>         0.1361
     47 H12        -4.9105   -6.5028    4.1400 H         1 <0>         0.1249
     48 H13        -7.1956   -6.9204    4.9480 H         1 <0>         0.1233
     49 H14        -8.7247   -4.0832    2.1438 H         1 <0>         0.1361
     50 H15        -9.1309   -7.6885    4.7639 H         1 <0>         0.0597
     51 H16        -8.9422   -6.3906    5.9673 H         1 <0>         0.0594
     52 H17       -11.3636   -5.8833    5.7997 H         1 <0>         0.0729
     53 H18       -11.5523   -7.1812    4.5963 H         1 <0>         0.0733
     54 H19       -12.1954   -7.9653    6.8591 H         1 <0>         0.0626
     55 H20       -10.7649   -8.8404    6.2623 H         1 <0>         0.0569
     56 H21       -10.5763   -7.5426    7.4658 H         1 <0>         0.0567
     57 H22        -4.2656   -0.3146   -0.2166 H         1 <0>         0.1189
     58 H23        -4.9538    1.9587    0.4279 H         1 <0>         0.1189
     59 H24        -5.3975    2.4890    2.7905 H         1 <0>         0.1191
     60 H25        -4.4741   -1.5441    3.8612 H         1 <0>         0.1262
     61 H26        -4.8142    2.8268    4.7732 H         1 <0>         0.0575
     62 H27        -6.5213    2.3730    4.5542 H         1 <0>         0.0617
     63 H28        -6.6126    1.5828    6.9028 H         1 <0>         0.0737
     64 H29        -4.9055    2.0367    7.1218 H         1 <0>         0.0726
     65 H30        -5.5080    4.4018    6.5255 H         1 <0>         0.0716
     66 H31        -8.3515    3.3007    6.6633 H         1 <0>         0.0573
     67 H32        -7.9098    5.0177    6.5041 H         1 <0>         0.0553
     68 H33        -7.5313    3.8759    5.1920 H         1 <0>         0.0570
     69 H34        -5.3922    3.6687    8.8915 H         1 <0>         0.0554
     70 H35        -6.6606    4.8967    8.6645 H         1 <0>         0.0557
     71 H36        -7.1023    3.1797    8.8237 H         1 <0>         0.0561
@<TRIPOS>BOND
     1    1    2 1
     2    1   37 1
     3    1   38 1
     4    1   39 1
     5    2    3 1
     6    2   40 1
     7    2   41 1
     8    3    4 1
     9    3   42 1
    10    3   43 1
    11    4    5 1
    12    4   44 1
    13    4   45 1
    14    5   10 am
    15    5    6 1
    16    6    7 1
    17    6    8 1
    18    6   25 1
    19    8    9 2
    20    8   13 1
    21    9   10 1
    22    9   12 1
    23   10   11 2
    24   13   14 2
    25   13   15 1
    26   15   20 ar
    27   15   16 ar
    28   16   17 ar
    29   16   46 1
    30   17   18 ar
    31   17   47 1
    32   18   19 ar
    33   18   48 1
    34   19   20 ar
    35   19   21 1
    36   20   49 1
    37   21   22 1
    38   22   23 1
    39   22   50 1
    40   22   51 1
    41   23   24 1
    42   23   52 1
    43   23   53 1
    44   24   54 1
    45   24   55 1
    46   24   56 1
    47   25   30 ar
    48   25   26 ar
    49   26   27 ar
    50   26   57 1
    51   27   28 ar
    52   27   58 1
    53   28   29 ar
    54   28   59 1
    55   29   30 ar
    56   29   31 1
    57   30   60 1
    58   31   32 1
    59   32   33 1
    60   32   61 1
    61   32   62 1
    62   33   34 1
    63   33   63 1
    64   33   64 1
    65   34   35 1
    66   34   36 1
    67   34   65 1
    68   35   66 1
    69   35   67 1
    70   35   68 1
    71   36   69 1
    72   36   70 1
    73   36   71 1
@<TRIPOS>MOLECULE
ZINC43463361
   63    65     0     0     0
SMALL
USER_CHARGES

@<TRIPOS>ATOM
      1 C1         -0.0187    1.5258    0.0104 C.3       1 <0>        -0.1856
      2 C2          0.0021   -0.0041    0.0020 C.3       1 <0>         0.1138
      3 C3          0.7421   -0.5109    1.2415 C.3       1 <0>        -0.1853
      4 C4         -1.4333   -0.5336    0.0129 C.3       1 <0>        -0.1398
      5 O1          0.6709   -0.4649   -1.1737 O.3       1 <0>        -0.3492
      6 C5          1.9483   -0.0860   -1.3362 C.2       1 <0>         0.4622
      7 O2          2.4810    0.6138   -0.5076 O.2       1 <0>        -0.4997
      8 C6          2.7182   -0.5334   -2.5520 C.3       1 <0>        -0.1146
      9 C7          4.1384    0.0327   -2.4932 C.3       1 <0>        -0.1081
     10 C8          4.9200   -0.4215   -3.7276 C.3       1 <0>        -0.1176
     11 C9          6.3402    0.1445   -3.6687 C.3       1 <0>        -0.1094
     12 C10         7.1218   -0.3097   -4.9031 C.3       1 <0>         0.0928
     13 H1          6.5772   -0.0245   -5.8032 H         1 <0>         0.0853
     14 C11         8.4786    0.3461   -4.9080 C.2       1 <0>         0.4897
     15 O3          9.4217   -0.2003   -4.3616 O.co2     1 <0>        -0.6889
     16 O4          8.6332    1.4230   -5.4582 O.co2     1 <0>        -0.6917
     17 N1          7.2831   -1.7654   -4.8706 N.am      1 <0>        -0.6707
     18 C12         7.4664   -2.4489   -6.0176 C.2       1 <0>         0.6459
     19 O5          7.4979   -1.8577   -7.0788 O.2       1 <0>        -0.5739
     20 O6          7.6147   -3.7868   -5.9877 O.3       1 <0>        -0.3696
     21 C13         7.8051   -4.4466   -7.2409 C.3       1 <0>         0.1083
     22 C14         7.9534   -5.9514   -7.0077 C.3       1 <0>        -0.0104
     23 C15         6.6445   -6.5354   -6.5355 C.ar      1 <0>        -0.0769
     24 C16         5.8684   -6.2885   -5.4231 C.ar      1 <0>        -0.0858
     25 C17         4.6874   -6.9843   -5.2340 C.ar      1 <0>        -0.1137
     26 C18         4.2830   -7.9287   -6.1602 C.ar      1 <0>        -0.1209
     27 C19         5.0533   -8.1822   -7.2761 C.ar      1 <0>        -0.0990
     28 C20         6.2460   -7.4840   -7.4734 C.ar      1 <0>        -0.0605
     29 C21         7.2508   -7.5539   -8.5631 C.ar      1 <0>        -0.0497
     30 C22         8.2771   -6.6490   -8.3061 C.ar      1 <0>        -0.0827
     31 C23         9.3350   -6.5299   -9.1822 C.ar      1 <0>        -0.0937
     32 C24         9.3806   -7.3110  -10.3234 C.ar      1 <0>        -0.1132
     33 C25         8.3654   -8.2126  -10.5877 C.ar      1 <0>        -0.1177
     34 C26         7.3034   -8.3387   -9.7164 C.ar      1 <0>        -0.0988
     35 H2          1.0039    1.9031    0.0027 H         1 <0>         0.0848
     36 H3         -0.5459    1.8868   -0.8726 H         1 <0>         0.0604
     37 H4         -0.5289    1.8773    0.9072 H         1 <0>         0.0687
     38 H5          0.2319   -0.1594    2.1383 H         1 <0>         0.0687
     39 H6          0.7568   -1.6008    1.2356 H         1 <0>         0.0602
     40 H7          1.7647   -0.1336    1.2338 H         1 <0>         0.0848
     41 H8         -1.9605   -0.1726   -0.8702 H         1 <0>         0.0658
     42 H9         -1.4185   -1.6235    0.0069 H         1 <0>         0.0657
     43 H10        -1.9435   -0.1821    0.9097 H         1 <0>         0.0761
     44 H11         2.7617   -1.6223   -2.5741 H         1 <0>         0.1039
     45 H12         2.2197   -0.1713   -3.4512 H         1 <0>         0.1043
     46 H13         4.0949    1.1216   -2.4710 H         1 <0>         0.0727
     47 H14         4.6369   -0.3294   -1.5940 H         1 <0>         0.0720
     48 H15         4.9635   -1.5105   -3.7497 H         1 <0>         0.0629
     49 H16         4.4215   -0.0595   -4.6267 H         1 <0>         0.0642
     50 H17         6.2967    1.2334   -3.6466 H         1 <0>         0.0814
     51 H18         6.8387   -0.2176   -2.7695 H         1 <0>         0.0685
     52 H19         7.2580   -2.2374   -4.0235 H         1 <0>         0.3981
     53 H20         6.9443   -4.2616   -7.8834 H         1 <0>         0.0685
     54 H21         8.7056   -4.0627   -7.7205 H         1 <0>         0.0738
     55 H22         8.7368   -6.1416   -6.2740 H         1 <0>         0.1148
     56 H23         6.1827   -5.5517   -4.6986 H         1 <0>         0.1319
     57 H24         4.0807   -6.7900   -4.3619 H         1 <0>         0.1268
     58 H25         3.3608   -8.4700   -6.0089 H         1 <0>         0.1243
     59 H26         4.7340   -8.9207   -7.9966 H         1 <0>         0.1204
     60 H27        10.1284   -5.8263   -8.9777 H         1 <0>         0.1289
     61 H28        10.2097   -7.2164  -11.0089 H         1 <0>         0.1283
     62 H29         8.4042   -8.8200  -11.4799 H         1 <0>         0.1258
     63 H30         6.5129   -9.0439   -9.9266 H         1 <0>         0.1222
@<TRIPOS>BOND
     1    1    2 1
     2    1   35 1
     3    1   36 1
     4    1   37 1
     5    2    3 1
     6    2    4 1
     7    2    5 1
     8    3   38 1
     9    3   39 1
    10    3   40 1
    11    4   41 1
    12    4   42 1
    13    4   43 1
    14    5    6 1
    15    6    7 2
    16    6    8 1
    17    8    9 1
    18    8   44 1
    19    8   45 1
    20    9   10 1
    21    9   46 1
    22    9   47 1
    23   10   11 1
    24   10   48 1
    25   10   49 1
    26   11   12 1
    27   11   50 1
    28   11   51 1
    29   12   13 1
    30   12   14 1
    31   12   17 1
    32   14   15 2
    33   14   16 1
    34   17   18 am
    35   17   52 1
    36   18   19 2
    37   18   20 1
    38   20   21 1
    39   21   22 1
    40   21   53 1
    41   21   54 1
    42   22   30 1
    43   22   23 1
    44   22   55 1
    45   23   28 ar
    46   23   24 ar
    47   24   25 ar
    48   24   56 1
    49   25   26 ar
    50   25   57 1
    51   26   27 ar
    52   26   58 1
    53   27   28 ar
    54   27   59 1
    55   28   29 1
    56   29   34 ar
    57   29   30 ar
    58   30   31 ar
    59   31   32 ar
    60   31   60 1
    61   32   33 ar
    62   32   61 1
    63   33   34 ar
    64   33   62 1
    65   34   63 1
@<TRIPOS>MOLECULE
ZINC13246527
   58    60     0     0     0
SMALL
USER_CHARGES
3-[4-[(4-methoxyphenyl)methyl-[(1R)-1-methyl-2-(2-thienyl)ethyl]sulfamoyl]phenyl]propanoic acid
@<TRIPOS>ATOM
      1 C1         -2.1262    0.4467    5.3064 C.3       1 <0>        -0.1846
      2 C2         -2.4229    1.2115    6.5979 C.3       1 <0>         0.1621
      3 H1         -1.8221    0.8009    7.4095 H         1 <0>         0.0961
      4 C3         -3.9073    1.0744    6.9424 C.3       1 <0>        -0.0998
      5 C4         -4.2038    1.8453    8.2029 C.2       1 <0>        -0.1143
      6 C5         -4.6620    3.1136    8.3399 C.2       1 <0>        -0.1561
      7 C6         -4.8642    3.6196    9.6102 C.2       1 <0>        -0.1393
      8 C7         -4.5983    2.8326   10.6813 C.2       1 <0>        -0.1696
      9 S1         -4.0501    1.3224    9.9029 S.3       1 <0>         0.0169
     10 N1         -2.0930    2.6270    6.4140 N.pl3     1 <0>        -0.9820
     11 C8         -0.9766    3.2210    7.1536 C.3       1 <0>         0.1694
     12 C9         -1.4583    3.6831    8.5047 C.ar      1 <0>        -0.1463
     13 C10        -2.0330    4.9332    8.6420 C.ar      1 <0>        -0.0570
     14 C11        -2.4805    5.3569    9.8784 C.ar      1 <0>        -0.2086
     15 C12        -2.3427    4.5315   10.9849 C.ar      1 <0>         0.1384
     16 C13        -1.7606    3.2799   10.8455 C.ar      1 <0>        -0.1511
     17 C14        -1.3198    2.8586    9.6059 C.ar      1 <0>        -0.0534
     18 O1         -2.7775    4.9480   12.2032 O.3       1 <0>        -0.3194
     19 C15        -3.3665    6.2481   12.2721 C.3       1 <0>         0.0278
     20 S2         -2.9821    3.5555    5.3701 S.o2      1 <0>         2.6887
     21 O2         -2.8207    4.9041    5.7880 O.2       1 <0>        -0.9566
     22 O3         -4.2577    2.9385    5.2635 O.2       1 <0>        -0.9544
     23 C16        -2.2257    3.4258    3.7840 C.ar      1 <0>        -0.6942
     24 C17        -2.7176    2.5280    2.8551 C.ar      1 <0>        -0.0206
     25 C18        -2.1247    2.4269    1.6104 C.ar      1 <0>        -0.1395
     26 C19        -1.0403    3.2238    1.2946 C.ar      1 <0>        -0.0040
     27 C20        -0.5452    4.1179    2.2254 C.ar      1 <0>        -0.1396
     28 C21        -1.1407    4.2221    3.4685 C.ar      1 <0>        -0.0194
     29 C22        -0.3940    3.1136   -0.0624 C.3       1 <0>        -0.0755
     30 C23        -1.0678    4.0896   -1.0290 C.3       1 <0>        -0.1511
     31 C24        -0.4215    3.9794   -2.3859 C.2       1 <0>         0.4601
     32 O4          0.4850    3.2001   -2.5618 O.co2     1 <0>        -0.6402
     33 H2         -1.0612    0.5096    5.0834 H         1 <0>         0.0709
     34 H3         -2.4106   -0.5983    5.4295 H         1 <0>         0.0778
     35 H4         -2.6956    0.8840    4.4862 H         1 <0>         0.0632
     36 H5         -4.5083    1.4709    6.1241 H         1 <0>         0.1521
     37 H6         -4.1493    0.0225    7.0943 H         1 <0>         0.0884
     38 H7         -4.8658    3.7198    7.4696 H         1 <0>         0.1206
     39 H8         -5.2290    4.6269    9.7473 H         1 <0>         0.1205
     40 H9         -4.6965    3.0591   11.7328 H         1 <0>         0.1761
     41 H10        -0.1900    2.4776    7.2831 H         1 <0>         0.0897
     42 H11        -0.5841    4.0722    6.5972 H         1 <0>         0.0879
     43 H12        -2.1360    5.5772    7.7811 H         1 <0>         0.1411
     44 H13        -2.9333    6.3317    9.9843 H         1 <0>         0.1218
     45 H14        -1.6518    2.6356   11.7054 H         1 <0>         0.1235
     46 H15        -0.8669    1.8842    9.4968 H         1 <0>         0.1231
     47 H16        -2.6398    6.9938   11.9498 H         1 <0>         0.0541
     48 H17        -4.2396    6.2864   11.6207 H         1 <0>         0.0541
     49 H18        -3.6695    6.4558   13.2983 H         1 <0>         0.0966
     50 H19        -3.5653    1.9059    3.1016 H         1 <0>         0.1383
     51 H20        -2.5090    1.7254    0.8847 H         1 <0>         0.1334
     52 H21         0.3048    4.7374    1.9801 H         1 <0>         0.1330
     53 H22        -0.7566    4.9237    4.1941 H         1 <0>         0.1320
     54 H23        -0.5061    2.0960   -0.4366 H         1 <0>         0.0791
     55 H24         0.6655    3.3561    0.0191 H         1 <0>         0.0789
     56 H25        -2.1274    3.8471   -1.1104 H         1 <0>         0.0665
     57 H26        -0.9557    5.1072   -0.6547 H         1 <0>         0.0664
     58 O5         -0.8529    4.7469   -3.3991 O.co2     1 <0>        -0.7719
@<TRIPOS>BOND
     1    1    2 1
     2    1   33 1
     3    1   34 1
     4    1   35 1
     5    2    3 1
     6    2    4 1
     7    2   10 1
     8    4    5 1
     9    4   36 1
    10    4   37 1
    11    5    9 1
    12    5    6 2
    13    6    7 1
    14    6   38 1
    15    7    8 2
    16    7   39 1
    17    8    9 1
    18    8   40 1
    19   10   11 1
    20   10   20 1
    21   11   12 1
    22   11   41 1
    23   11   42 1
    24   12   17 ar
    25   12   13 ar
    26   13   14 ar
    27   13   43 1
    28   14   15 ar
    29   14   44 1
    30   15   16 ar
    31   15   18 1
    32   16   17 ar
    33   16   45 1
    34   17   46 1
    35   18   19 1
    36   19   47 1
    37   19   48 1
    38   19   49 1
    39   20   21 2
    40   20   22 2
    41   20   23 1
    42   23   28 ar
    43   23   24 ar
    44   24   25 ar
    45   24   50 1
    46   25   26 ar
    47   25   51 1
    48   26   27 ar
    49   26   29 1
    50   27   28 ar
    51   27   52 1
    52   28   53 1
    53   29   30 1
    54   29   54 1
    55   29   55 1
    56   30   31 1
    57   30   56 1
    58   30   57 1
    59   31   32 2
    60   31   58 1
@<TRIPOS>MOLECULE
ZINC34258593
   57    59     0     0     0
SMALL
USER_CHARGES

@<TRIPOS>ATOM
      1 C1         -0.0187    1.5258    0.0104 C.3       1 <0>        -0.1518
      2 C2          0.0021   -0.0041    0.0020 C.3       1 <0>        -0.1262
      3 C3         -1.4333   -0.5336    0.0129 C.3       1 <0>        -0.1190
      4 C4         -1.4126   -2.0635    0.0045 C.3       1 <0>        -0.1170
      5 C5         -2.8479   -2.5931    0.0153 C.3       1 <0>        -0.0458
      6 C6         -2.8275   -4.0999    0.0070 C.2       1 <0>         0.0635
      7 N1         -1.7818   -4.8318   -0.0013 N.2       1 <0>        -0.2768
      8 O1         -2.0714   -6.2156   -0.0150 O.3       1 <0>        -0.1742
      9 C7         -3.4450   -6.3755    0.3954 C.3       1 <0>         0.0078
     10 C8         -4.0460   -5.0032    0.0138 C.3       1 <0>        -0.1211
     11 C9         -4.1205   -7.5091   -0.3789 C.3       1 <0>         0.1591
     12 H1         -3.9980   -7.3416   -1.4490 H         1 <0>         0.0655
     13 C10        -3.4872   -8.8231   -0.0004 C.ar      1 <0>        -0.0679
     14 C11        -3.9297   -9.5075    1.1161 C.ar      1 <0>        -0.0708
     15 C12        -3.3488  -10.7128    1.4634 C.ar      1 <0>        -0.0768
     16 C13        -2.3255  -11.2339    0.6938 C.ar      1 <0>        -0.1879
     17 C14        -1.8835  -10.5500   -0.4233 C.ar      1 <0>        -0.0807
     18 C15        -2.4674   -9.3468   -0.7729 C.ar      1 <0>        -0.1035
     19 C16        -1.6915  -12.5475    1.0729 C.3       1 <0>         0.5103
     20 F1         -2.3787  -13.5943    0.4491 F         1 <0>        -0.1818
     21 F2         -0.3546  -12.5562    0.6605 F         1 <0>        -0.1798
     22 F3         -1.7524  -12.7113    2.4609 F         1 <0>        -0.1775
     23 O2         -5.5127   -7.5415   -0.0582 O.3       1 <0>        -0.3244
     24 C17        -6.3420   -8.0241   -1.1171 C.3       1 <0>         0.0924
     25 C18        -7.7816   -8.0153   -0.6716 C.ar      1 <0>        -0.0780
     26 C19        -8.3190   -9.1260   -0.0482 C.ar      1 <0>        -0.0940
     27 C20        -9.6395   -9.1180    0.3605 C.ar      1 <0>        -0.1242
     28 C21       -10.4225   -7.9991    0.1463 C.ar      1 <0>        -0.1184
     29 C22        -9.8849   -6.8881   -0.4763 C.ar      1 <0>        -0.1255
     30 C23        -8.5632   -6.8946   -0.8811 C.ar      1 <0>        -0.0965
     31 C24        -3.5415   -6.6068    1.8815 C.2       1 <0>         0.5028
     32 O3         -2.5286   -6.6499    2.5587 O.co2     1 <0>        -0.6706
     33 O4         -4.6325   -6.7507    2.4064 O.co2     1 <0>        -0.6661
     34 H2          1.0039    1.9031    0.0027 H         1 <0>         0.0510
     35 H3         -0.5459    1.8868   -0.8726 H         1 <0>         0.0517
     36 H4         -0.5289    1.8773    0.9072 H         1 <0>         0.0528
     37 H5          0.5123   -0.3556   -0.8948 H         1 <0>         0.0607
     38 H6          0.5293   -0.3651    0.8851 H         1 <0>         0.0624
     39 H7         -1.9435   -0.1821    0.9097 H         1 <0>         0.0622
     40 H8         -1.9605   -0.1726   -0.8702 H         1 <0>         0.0604
     41 H9         -0.9024   -2.4150   -0.8923 H         1 <0>         0.0675
     42 H10        -0.8854   -2.4246    0.8875 H         1 <0>         0.0706
     43 H11        -3.3581   -2.2415    0.9121 H         1 <0>         0.0890
     44 H12        -3.3751   -2.2320   -0.8677 H         1 <0>         0.0868
     45 H13        -4.7678   -4.6740    0.7613 H         1 <0>         0.1027
     46 H14        -4.5027   -5.0447   -0.9750 H         1 <0>         0.0815
     47 H15        -4.7292   -9.1003    1.7174 H         1 <0>         0.1519
     48 H16        -3.6940  -11.2471    2.3361 H         1 <0>         0.1314
     49 H17        -1.0839  -10.9570   -1.0243 H         1 <0>         0.1307
     50 H18        -2.1247   -8.8143   -1.6477 H         1 <0>         0.1296
     51 H19        -6.2279   -7.3811   -1.9899 H         1 <0>         0.0533
     52 H20        -6.0475   -9.0415   -1.3744 H         1 <0>         0.0550
     53 H21        -7.7072  -10.0001    0.1191 H         1 <0>         0.1223
     54 H22       -10.0595   -9.9860    0.8469 H         1 <0>         0.1210
     55 H23       -11.4544   -7.9931    0.4649 H         1 <0>         0.1190
     56 H24       -10.4968   -6.0141   -0.6440 H         1 <0>         0.1204
     57 H25        -8.1422   -6.0252   -1.3642 H         1 <0>         0.1210
@<TRIPOS>BOND
     1    1    2 1
     2    1   34 1
     3    1   35 1
     4    1   36 1
     5    2    3 1
     6    2   37 1
     7    2   38 1
     8    3    4 1
     9    3   39 1
    10    3   40 1
    11    4    5 1
    12    4   41 1
    13    4   42 1
    14    5    6 1
    15    5   43 1
    16    5   44 1
    17    6   10 1
    18    6    7 2
    19    7    8 1
    20    8    9 1
    21    9   10 1
    22    9   11 1
    23    9   31 1
    24   10   45 1
    25   10   46 1
    26   11   12 1
    27   11   13 1
    28   11   23 1
    29   13   18 ar
    30   13   14 ar
    31   14   15 ar
    32   14   47 1
    33   15   16 ar
    34   15   48 1
    35   16   17 ar
    36   16   19 1
    37   17   18 ar
    38   17   49 1
    39   18   50 1
    40   19   20 1
    41   19   21 1
    42   19   22 1
    43   23   24 1
    44   24   25 1
    45   24   51 1
    46   24   52 1
    47   25   30 ar
    48   25   26 ar
    49   26   27 ar
    50   26   53 1
    51   27   28 ar
    52   27   54 1
    53   28   29 ar
    54   28   55 1
    55   29   30 ar
    56   29   56 1
    57   30   57 1
    58   31   32 2
    59   31   33 1
@<TRIPOS>MOLECULE
ZINC40029269
   63    65     0     0     0
SMALL
USER_CHARGES

@<TRIPOS>ATOM
      1 C1         -1.6433    1.8527   -3.9950 C.3       1 <0>        -0.1517
      2 C2         -1.7356    0.3334   -4.1510 C.3       1 <0>         0.0549
      3 O1         -0.4418   -0.2440   -3.9651 O.3       1 <0>        -0.3175
      4 C3         -0.3483   -1.5957   -4.0715 C.ar      1 <0>         0.1103
      5 C4         -1.4798   -2.3495   -4.3552 C.ar      1 <0>        -0.1945
      6 C5         -1.3911   -3.7251   -4.4643 C.ar      1 <0>        -0.0989
      7 C6         -0.1774   -4.3584   -4.2920 C.ar      1 <0>        -0.0996
      8 C7          0.9659   -3.6089   -4.0069 C.ar      1 <0>        -0.0973
      9 C8          0.8756   -2.2198   -3.9027 C.ar      1 <0>        -0.1052
     10 C9          2.2685   -4.2839   -3.8216 C.2       1 <0>         0.5052
     11 O2          3.2738   -3.6249   -3.6337 O.2       1 <0>        -0.4680
     12 C10         2.3485   -5.7469   -3.8643 C.2       1 <0>        -0.5002
     13 C11         2.9814   -6.4939   -4.7991 C.2       1 <0>         0.2645
     14 C12         2.8186   -7.9255   -4.4682 C.2       1 <0>         0.5120
     15 O3          3.2727   -8.8470   -5.1167 O.2       1 <0>        -0.5347
     16 N1          2.0938   -8.0569   -3.3424 N.am      1 <0>        -0.6086
     17 C13         1.7461   -6.7117   -2.8698 C.3       1 <0>         0.2635
     18 H1          0.6627   -6.5946   -2.8431 H         1 <0>         0.0723
     19 C14         2.3276   -6.4742   -1.4999 C.ar      1 <0>        -0.0307
     20 C15         3.6350   -6.8366   -1.2321 C.ar      1 <0>        -0.1131
     21 C16         4.1714   -6.6201    0.0235 C.ar      1 <0>        -0.0839
     22 C17         3.4019   -6.0411    1.0143 C.ar      1 <0>        -0.2139
     23 C18         2.0902   -5.6767    0.7481 C.ar      1 <0>         0.1235
     24 C19         1.5561   -5.8895   -0.5147 C.ar      1 <0>        -0.1454
     25 O4          1.3313   -5.1070    1.7210 O.3       1 <0>        -0.3184
     26 C20         1.9486   -4.9127    2.9950 C.3       1 <0>         0.0599
     27 C21         0.9473   -4.2647    3.9534 C.3       1 <0>        -0.1144
     28 C22         1.6082   -4.0567    5.3175 C.3       1 <0>        -0.0933
     29 C23         2.7504   -3.0476    5.1823 C.3       1 <0>        -0.1539
     30 C24         0.5726   -3.5247    6.3101 C.3       1 <0>        -0.1463
     31 C25         1.7217   -9.3195   -2.6992 C.3       1 <0>         0.1619
     32 C26         2.7857   -9.7099   -1.7059 C.2       1 <0>        -0.1567
     33 C27         2.4626   -9.9443   -0.4582 C.2       1 <0>        -0.1837
     34 O5          3.6549   -6.0078   -5.8668 O.3       1 <0>        -0.6531
     35 H2         -1.2779    2.0938   -2.9968 H         1 <0>         0.0653
     36 H3         -0.9561    2.2534   -4.7401 H         1 <0>         0.0657
     37 H4         -2.6302    2.2931   -4.1368 H         1 <0>         0.0752
     38 H5         -2.4229   -0.0673   -3.4059 H         1 <0>         0.0593
     39 H6         -2.1011    0.0923   -5.1492 H         1 <0>         0.0595
     40 H7         -2.4326   -1.8594   -4.4907 H         1 <0>         0.1235
     41 H8         -2.2747   -4.3057   -4.6847 H         1 <0>         0.1250
     42 H9         -0.1118   -5.4330   -4.3771 H         1 <0>         0.1362
     43 H10         1.7570   -1.6343   -3.6865 H         1 <0>         0.1361
     44 H11         4.2379   -7.2900   -2.0050 H         1 <0>         0.1162
     45 H12         5.1927   -6.9040    0.2302 H         1 <0>         0.1170
     46 H13         3.8211   -5.8728    1.9953 H         1 <0>         0.1182
     47 H14         0.5366   -5.6023   -0.7258 H         1 <0>         0.1250
     48 H15         2.2646   -5.8757    3.3963 H         1 <0>         0.0573
     49 H16         2.8168   -4.2633    2.8829 H         1 <0>         0.0614
     50 H17         0.6313   -3.3017    3.5521 H         1 <0>         0.0737
     51 H18         0.0791   -4.9141    4.0655 H         1 <0>         0.0725
     52 H19         2.0032   -5.0063    5.6784 H         1 <0>         0.0715
     53 H20         3.4882   -3.4266    4.4751 H         1 <0>         0.0570
     54 H21         2.3554   -2.0980    4.8213 H         1 <0>         0.0573
     55 H22         3.2212   -2.8994    6.1541 H         1 <0>         0.0552
     56 H23        -0.2411   -4.2436    6.4065 H         1 <0>         0.0554
     57 H24         1.0435   -3.3765    7.2820 H         1 <0>         0.0556
     58 H25         0.1776   -2.5751    5.9492 H         1 <0>         0.0561
     59 H26         0.7697   -9.1974   -2.1827 H         1 <0>         0.0788
     60 H27         1.6274  -10.0986   -3.4556 H         1 <0>         0.0867
     61 H28         3.8145   -9.7964   -2.0227 H         1 <0>         0.1074
     62 H29         1.4337   -9.8577   -0.1414 H         1 <0>         0.0933
     63 H30         3.2250  -10.2240    0.2537 H         1 <0>         0.0933
@<TRIPOS>BOND
     1    1    2 1
     2    1   35 1
     3    1   36 1
     4    1   37 1
     5    2    3 1
     6    2   38 1
     7    2   39 1
     8    3    4 1
     9    4    9 ar
    10    4    5 ar
    11    5    6 ar
    12    5   40 1
    13    6    7 ar
    14    6   41 1
    15    7    8 ar
    16    7   42 1
    17    8    9 ar
    18    8   10 1
    19    9   43 1
    20   10   11 2
    21   10   12 1
    22   12   17 1
    23   12   13 2
    24   13   14 1
    25   13   34 1
    26   14   15 2
    27   14   16 am
    28   16   17 1
    29   16   31 1
    30   17   18 1
    31   17   19 1
    32   19   24 ar
    33   19   20 ar
    34   20   21 ar
    35   20   44 1
    36   21   22 ar
    37   21   45 1
    38   22   23 ar
    39   22   46 1
    40   23   24 ar
    41   23   25 1
    42   24   47 1
    43   25   26 1
    44   26   27 1
    45   26   48 1
    46   26   49 1
    47   27   28 1
    48   27   50 1
    49   27   51 1
    50   28   29 1
    51   28   30 1
    52   28   52 1
    53   29   53 1
    54   29   54 1
    55   29   55 1
    56   30   56 1
    57   30   57 1
    58   30   58 1
    59   31   32 1
    60   31   59 1
    61   31   60 1
    62   32   33 2
    63   32   61 1
    64   33   62 1
    65   33   63 1
@<TRIPOS>MOLECULE
ZINC40083370
   67    70     0     0     0
SMALL
USER_CHARGES

@<TRIPOS>ATOM
      1 C1          0.1972    1.5023    0.6203 C.3       1 <0>        -0.1494
      2 C2          0.0830   -0.0202    0.7199 C.3       1 <0>        -0.1196
      3 C3         -1.3342   -0.4515    0.3370 C.3       1 <0>        -0.1436
      4 C4         -1.4484   -1.9740    0.4366 C.3       1 <0>         0.1366
      5 N1         -2.8053   -2.3869    0.0701 N.am      1 <0>        -0.6094
      6 C5         -3.9432   -2.5254    0.9865 C.3       1 <0>         0.2530
      7 H1         -3.7231   -3.2747    1.7468 H         1 <0>         0.0706
      8 C6         -5.1132   -2.9714    0.1410 C.2       1 <0>        -0.4795
      9 C7         -4.6609   -3.0704   -1.1306 C.2       1 <0>         0.2798
     10 C8         -3.2304   -2.7008   -1.1673 C.2       1 <0>         0.5076
     11 O1         -2.5395   -2.6854   -2.1666 O.2       1 <0>        -0.5320
     12 O2         -5.4017   -3.4441   -2.1993 O.3       1 <0>        -0.6082
     13 C9         -6.4762   -3.2443    0.6081 C.2       1 <0>         0.4677
     14 O3         -7.3522   -3.5111   -0.1934 O.2       1 <0>        -0.4871
     15 C10        -6.7856   -3.1953    2.0506 C.ar      1 <0>        -0.1410
     16 C11        -7.5021   -2.1162    2.5778 C.ar      1 <0>        -0.0447
     17 C12        -7.7885   -2.0745    3.9234 C.ar      1 <0>        -0.2063
     18 C13        -7.3661   -3.1031    4.7585 C.ar      1 <0>         0.1310
     19 C14        -6.6535   -4.1777    4.2385 C.ar      1 <0>        -0.1570
     20 C15        -6.3682   -4.2304    2.8926 C.ar      1 <0>        -0.0235
     21 C16        -5.6012   -5.3987    2.3290 C.3       1 <0>        -0.1159
     22 O4         -7.6498   -3.0577    6.0847 O.3       1 <0>        -0.3127
     23 C17        -8.3847   -1.9249    6.5524 C.3       1 <0>         0.0866
     24 C18        -8.6041   -2.0471    8.0384 C.2       1 <0>        -0.1510
     25 C19        -8.4081   -1.0119    8.8168 C.2       1 <0>        -0.1758
     26 C20        -4.2480   -1.2010    1.6379 C.ar      1 <0>        -0.0512
     27 C21        -4.3488   -0.0582    0.8657 C.ar      1 <0>        -0.0852
     28 C22        -4.6288    1.1582    1.4600 C.ar      1 <0>        -0.1114
     29 C23        -4.8081    1.2351    2.8278 C.ar      1 <0>        -0.1308
     30 C24        -4.7075    0.0901    3.6048 C.ar      1 <0>         0.0776
     31 C25        -4.4321   -1.1306    3.0049 C.ar      1 <0>        -0.1106
     32 O5         -4.8834    0.1631    4.9502 O.3       1 <0>        -0.2554
     33 C26        -3.7769    0.1679    5.7389 C.ar      1 <0>         0.1305
     34 C27        -2.5142    0.1999    5.1646 C.ar      1 <0>        -0.1919
     35 C28        -1.3910    0.2047    5.9686 C.ar      1 <0>        -0.0820
     36 C29        -1.5241    0.1773    7.3447 C.ar      1 <0>        -0.1596
     37 C30        -2.7812    0.1450    7.9195 C.ar      1 <0>        -0.0848
     38 C31        -3.9078    0.1467    7.1202 C.ar      1 <0>        -0.1492
     39 H2          1.2068    1.8095    0.8930 H         1 <0>         0.0506
     40 H3         -0.0146    1.8164   -0.4018 H         1 <0>         0.0532
     41 H4         -0.5193    1.9655    1.2986 H         1 <0>         0.0526
     42 H5          0.7995   -0.4834    0.0415 H         1 <0>         0.0609
     43 H6          0.2947   -0.3343    1.7419 H         1 <0>         0.0596
     44 H7         -2.0507    0.0118    1.0154 H         1 <0>         0.0722
     45 H8         -1.5459   -0.1373   -0.6850 H         1 <0>         0.0653
     46 H9         -0.7319   -2.4372   -0.2417 H         1 <0>         0.0772
     47 H10        -1.2366   -2.2881    1.4587 H         1 <0>         0.0722
     48 H11        -7.8299   -1.3166    1.9300 H         1 <0>         0.1198
     49 H12        -8.3418   -1.2415    4.3313 H         1 <0>         0.1217
     50 H13        -6.3270   -4.9744    4.8905 H         1 <0>         0.1264
     51 H14        -4.5409   -5.1498    2.2844 H         1 <0>         0.0753
     52 H15        -5.7433   -6.2695    2.9690 H         1 <0>         0.0637
     53 H16        -5.9645   -5.6220    1.3258 H         1 <0>         0.0746
     54 H17        -7.8228   -1.0150    6.3418 H         1 <0>         0.0696
     55 H18        -9.3485   -1.8824    6.0451 H         1 <0>         0.0690
     56 H19        -8.9229   -2.9883    8.4615 H         1 <0>         0.1175
     57 H20        -8.5653   -1.0995    9.8817 H         1 <0>         0.1053
     58 H21        -8.0893   -0.0708    8.3936 H         1 <0>         0.0996
     59 H22        -4.2083   -0.1161   -0.2036 H         1 <0>         0.1221
     60 H23        -4.7070    2.0492    0.8547 H         1 <0>         0.1251
     61 H24        -5.0261    2.1857    3.2917 H         1 <0>         0.1230
     62 H25        -4.3574   -2.0241    3.6071 H         1 <0>         0.1240
     63 H26        -2.4096    0.2206    4.0899 H         1 <0>         0.1293
     64 H27        -0.4079    0.2295    5.5221 H         1 <0>         0.1228
     65 H28        -0.6446    0.1807    7.9715 H         1 <0>         0.1209
     66 H29        -2.8825    0.1233    8.9946 H         1 <0>         0.1265
     67 H30        -4.8896    0.1263    7.5697 H         1 <0>         0.1277
@<TRIPOS>BOND
     1    1    2 1
     2    1   39 1
     3    1   40 1
     4    1   41 1
     5    2    3 1
     6    2   42 1
     7    2   43 1
     8    3    4 1
     9    3   44 1
    10    3   45 1
    11    4    5 1
    12    4   46 1
    13    4   47 1
    14    5   10 am
    15    5    6 1
    16    6    7 1
    17    6    8 1
    18    6   26 1
    19    8    9 2
    20    8   13 1
    21    9   10 1
    22    9   12 1
    23   10   11 2
    24   13   14 2
    25   13   15 1
    26   15   20 ar
    27   15   16 ar
    28   16   17 ar
    29   16   48 1
    30   17   18 ar
    31   17   49 1
    32   18   19 ar
    33   18   22 1
    34   19   20 ar
    35   19   50 1
    36   20   21 1
    37   21   51 1
    38   21   52 1
    39   21   53 1
    40   22   23 1
    41   23   24 1
    42   23   54 1
    43   23   55 1
    44   24   25 2
    45   24   56 1
    46   25   57 1
    47   25   58 1
    48   26   31 ar
    49   26   27 ar
    50   27   28 ar
    51   27   59 1
    52   28   29 ar
    53   28   60 1
    54   29   30 ar
    55   29   61 1
    56   30   31 ar
    57   30   32 1
    58   31   62 1
    59   32   33 1
    60   33   38 ar
    61   33   34 ar
    62   34   35 ar
    63   34   63 1
    64   35   36 ar
    65   35   64 1
    66   36   37 ar
    67   36   65 1
    68   37   38 ar
    69   37   66 1
    70   38   67 1
@<TRIPOS>MOLECULE
ZINC13133774
   69    71     0     0     0
SMALL
USER_CHARGES

@<TRIPOS>ATOM
      1 C1          2.3421    0.1334   -1.1531 C.3       1 <0>        -0.1472
      2 C2          1.7071   -1.1910   -0.7243 C.3       1 <0>        -0.1202
      3 C3          0.1962   -1.1312   -0.9573 C.3       1 <0>        -0.1112
      4 C4         -0.4388   -2.4556   -0.5285 C.3       1 <0>         0.0674
      5 O1         -1.8500   -2.3998   -0.7461 O.3       1 <0>        -0.4044
      6 C5         -2.5428   -3.5936   -0.3762 C.3       1 <0>         0.3606
      7 C6         -1.9856   -4.7698   -1.1453 C.2       1 <0>        -0.0860
      8 N1         -1.0405   -5.4960   -0.6215 N.2       1 <0>        -0.2005
      9 N2         -0.5688   -5.2847    0.5515 N.2       1 <0>        -0.4820
     10 C7         -1.1582   -4.4843    1.4159 C.2       1 <0>         0.2700
     11 N3         -2.3398   -3.8663    1.0578 N.2       1 <0>        -0.6688
     12 S1         -0.4497   -4.2068    3.0051 S.3       1 <0>         0.0077
     13 C8          1.0577   -5.2158    2.9957 C.3       1 <0>        -0.1391
     14 C9          1.7696   -5.0677    4.3157 C.2       1 <0>         0.5334
     15 O2          1.3057   -4.3519    5.1779 O.2       1 <0>        -0.5234
     16 N4          2.9218   -5.7306    4.5381 N.am      1 <0>        -0.7302
     17 C10         3.6138   -5.5865    5.8213 C.3       1 <0>         0.1245
     18 C11         4.8852   -6.4376    5.8134 C.3       1 <0>        -0.1088
     19 C12         5.6717   -6.1914    7.1025 C.3       1 <0>        -0.1447
     20 C13         4.5079   -7.9174    5.7210 C.3       1 <0>        -0.1502
     21 C14        -2.5096   -5.0927   -2.4820 C.ar      1 <0>         0.0228
     22 C15        -2.8407   -4.0675   -3.3736 C.ar      1 <0>        -0.1060
     23 C16        -3.3312   -4.3781   -4.6244 C.ar      1 <0>        -0.1214
     24 C17        -3.4961   -5.7005   -4.9982 C.ar      1 <0>        -0.1115
     25 C18        -3.1707   -6.7207   -4.1214 C.ar      1 <0>        -0.1245
     26 C19        -2.6737   -6.4264   -2.8693 C.ar      1 <0>        -0.1047
     27 C20        -4.0332   -6.0311   -6.3668 C.3       1 <0>        -0.1054
     28 C21        -4.0140   -3.4418   -0.6652 C.ar      1 <0>        -0.0174
     29 C22        -4.4435   -2.5143   -1.5959 C.ar      1 <0>        -0.0933
     30 C23        -5.7930   -2.3751   -1.8610 C.ar      1 <0>        -0.1298
     31 C24        -6.7130   -3.1636   -1.1956 C.ar      1 <0>        -0.1020
     32 C25        -6.2835   -4.0918   -0.2656 C.ar      1 <0>        -0.1297
     33 C26        -4.9337   -4.2340   -0.0037 C.ar      1 <0>        -0.0801
     34 C27        -8.1843   -3.0112   -1.4839 C.3       1 <0>        -0.1061
     35 H1          3.4185    0.0908   -0.9871 H         1 <0>         0.0509
     36 H2          2.1441    0.3054   -2.2111 H         1 <0>         0.0517
     37 H3          1.9159    0.9473   -0.5667 H         1 <0>         0.0529
     38 H4          2.1333   -2.0050   -1.3107 H         1 <0>         0.0590
     39 H5          1.9051   -1.3630    0.3337 H         1 <0>         0.0616
     40 H6         -0.2300   -0.3173   -0.3709 H         1 <0>         0.0630
     41 H7         -0.0018   -0.9592   -2.0153 H         1 <0>         0.0600
     42 H8         -0.0126   -3.2695   -1.1149 H         1 <0>         0.0388
     43 H9         -0.2408   -2.6276    0.5295 H         1 <0>         0.0503
     44 H10         0.7938   -6.2620    2.8407 H         1 <0>         0.1144
     45 H11         1.7126   -4.8832    2.1904 H         1 <0>         0.1132
     46 H12         3.2928   -6.3031    3.8486 H         1 <0>         0.4016
     47 H13         3.8778   -4.5404    5.9763 H         1 <0>         0.0672
     48 H14         2.9589   -5.9192    6.6266 H         1 <0>         0.0677
     49 H15         5.4996   -6.1650    4.9553 H         1 <0>         0.0770
     50 H16         5.0574   -6.4640    7.9606 H         1 <0>         0.0580
     51 H17         6.5775   -6.7977    7.0969 H         1 <0>         0.0590
     52 H18         5.9406   -5.1371    7.1684 H         1 <0>         0.0578
     53 H19         3.8935   -8.1900    6.5791 H         1 <0>         0.0574
     54 H20         3.9475   -8.0928    4.8026 H         1 <0>         0.0568
     55 H21         5.4137   -8.5237    5.7153 H         1 <0>         0.0568
     56 H22        -2.7129   -3.0351   -3.0832 H         1 <0>         0.1255
     57 H23        -3.5876   -3.5875   -5.3139 H         1 <0>         0.1115
     58 H24        -3.3022   -7.7502   -4.4204 H         1 <0>         0.1106
     59 H25        -2.4157   -7.2237   -2.1881 H         1 <0>         0.1155
     60 H26        -3.2050   -6.1249   -7.0692 H         1 <0>         0.0613
     61 H27        -4.5819   -6.9719   -6.3243 H         1 <0>         0.0585
     62 H28        -4.7011   -5.2355   -6.6969 H         1 <0>         0.0591
     63 H29        -3.7247   -1.8982   -2.1157 H         1 <0>         0.1225
     64 H30        -6.1286   -1.6500   -2.5876 H         1 <0>         0.1124
     65 H31        -7.0023   -4.7076    0.2544 H         1 <0>         0.1119
     66 H32        -4.5978   -4.9617    0.7202 H         1 <0>         0.1169
     67 H33        -8.4674   -3.6830   -2.2942 H         1 <0>         0.0625
     68 H34        -8.7572   -3.2583   -0.5901 H         1 <0>         0.0594
     69 H35        -8.3926   -1.9818   -1.7759 H         1 <0>         0.0596
@<TRIPOS>BOND
     1    1    2 1
     2    1   35 1
     3    1   36 1
     4    1   37 1
     5    2    3 1
     6    2   38 1
     7    2   39 1
     8    3    4 1
     9    3   40 1
    10    3   41 1
    11    4    5 1
    12    4   42 1
    13    4   43 1
    14    5    6 1
    15    6   11 1
    16    6    7 1
    17    6   28 1
    18    7    8 2
    19    7   21 1
    20    8    9 1
    21    9   10 2
    22   10   11 1
    23   10   12 1
    24   12   13 1
    25   13   14 1
    26   13   44 1
    27   13   45 1
    28   14   15 2
    29   14   16 am
    30   16   17 1
    31   16   46 1
    32   17   18 1
    33   17   47 1
    34   17   48 1
    35   18   19 1
    36   18   20 1
    37   18   49 1
    38   19   50 1
    39   19   51 1
    40   19   52 1
    41   20   53 1
    42   20   54 1
    43   20   55 1
    44   21   26 ar
    45   21   22 ar
    46   22   23 ar
    47   22   56 1
    48   23   24 ar
    49   23   57 1
    50   24   25 ar
    51   24   27 1
    52   25   26 ar
    53   25   58 1
    54   26   59 1
    55   27   60 1
    56   27   61 1
    57   27   62 1
    58   28   33 ar
    59   28   29 ar
    60   29   30 ar
    61   29   63 1
    62   30   31 ar
    63   30   64 1
    64   31   32 ar
    65   31   34 1
    66   32   33 ar
    67   32   65 1
    68   33   66 1
    69   34   67 1
    70   34   68 1
    71   34   69 1
@<TRIPOS>MOLECULE
ZINC13032152
   46    48     0     0     0
SMALL
USER_CHARGES
(E)-3-[4-methoxy-3-[[4-(2-methylthiazol-4-yl)phenyl]sulfamoyl]phenyl]prop-2-enoic acid
@<TRIPOS>ATOM
      1 C1          0.3005    6.1307    8.9794 C.3       1 <0>        -0.0632
      2 C2          0.2029    6.9710    7.7323 C.2       1 <0>         0.0951
      3 N1          0.1616    6.5817    6.4812 N.2       1 <0>        -0.5042
      4 C3          0.0797    7.4536    5.4886 C.2       1 <0>         0.1037
      5 C4          0.0271    8.7839    5.8070 C.2       1 <0>        -0.2037
      6 S1          0.1101    8.6988    7.5899 S.3       1 <0>         0.0432
      7 C5          0.0399    7.0030    4.0756 C.ar      1 <0>        -0.0351
      8 C6         -0.0582    7.9387    3.0470 C.ar      1 <0>        -0.0775
      9 C7         -0.0901    7.5178    1.7342 C.ar      1 <0>        -0.1491
     10 C8         -0.0354    6.1613    1.4367 C.ar      1 <0>         0.1548
     11 C9          0.0571    5.2264    2.4609 C.ar      1 <0>        -0.1311
     12 C10         0.0947    5.6430    3.7749 C.ar      1 <0>        -0.0684
     13 N2         -0.0737    5.7369    0.1064 N.pl3     1 <0>        -1.0527
     14 S2         -1.1909    6.3770   -0.9350 S.o2      1 <0>         2.7003
     15 O1         -1.0639    7.7897   -0.8488 O.2       1 <0>        -0.9518
     16 O2         -1.0527    5.6732   -2.1617 O.2       1 <0>        -0.9444
     17 C11        -2.7849    5.9750   -0.3006 C.ar      1 <0>        -0.7010
     18 C12        -3.6313    6.9775    0.1164 C.ar      1 <0>         0.0187
     19 C13        -4.8994    6.6571    0.6150 C.ar      1 <0>        -0.0844
     20 C14        -5.2958    5.3167    0.6973 C.ar      1 <0>        -0.0229
     21 C15        -4.4398    4.3218    0.2829 C.ar      1 <0>        -0.2199
     22 C16        -3.1833    4.6459   -0.2168 C.ar      1 <0>         0.2116
     23 O3         -2.3427    3.6610   -0.6237 O.3       1 <0>        -0.3141
     24 C17        -2.7671    2.3142   -0.4046 C.3       1 <0>         0.0260
     25 C18        -5.8094    7.7234    1.0560 C.2       1 <0>        -0.1115
     26 C19        -7.0306    7.4112    1.5418 C.2       1 <0>        -0.1427
     27 C20        -7.9085    8.4401    1.9673 C.2       1 <0>         0.4693
     28 O4         -7.5621    9.6039    1.8949 O.co2     1 <0>        -0.6346
     29 H1          0.3066    6.7797    9.8552 H         1 <0>         0.0859
     30 H2         -0.5553    5.4576    9.0319 H         1 <0>         0.0934
     31 H3          1.2207    5.5472    8.9533 H         1 <0>         0.0921
     32 H4         -0.0449    9.6457    5.1601 H         1 <0>         0.2005
     33 H5         -0.1050    8.9926    3.2779 H         1 <0>         0.1328
     34 H6         -0.1620    8.2426    0.9368 H         1 <0>         0.1602
     35 H7          0.0999    4.1728    2.2275 H         1 <0>         0.1297
     36 H8          0.1662    4.9161    4.5704 H         1 <0>         0.1358
     37 H9          0.5540    5.0673   -0.2074 H         1 <0>         0.4263
     38 H10        -3.3190    8.0096    0.0553 H         1 <0>         0.1530
     39 H11        -6.2716    5.0640    1.0849 H         1 <0>         0.1408
     40 H12        -4.7444    3.2876    0.3463 H         1 <0>         0.1374
     41 H13        -3.6549    2.1110   -1.0035 H         1 <0>         0.0617
     42 H14        -1.9693    1.6301   -0.6938 H         1 <0>         0.1050
     43 H15        -3.0010    2.1741    0.6508 H         1 <0>         0.0612
     44 H16        -5.5018    8.7567    0.9917 H         1 <0>         0.1337
     45 H17        -7.3383    6.3780    1.6061 H         1 <0>         0.1049
     46 O5         -9.1284    8.1282    2.4526 O.co2     1 <0>        -0.7648
@<TRIPOS>BOND
     1    1    2 1
     2    1   29 1
     3    1   30 1
     4    1   31 1
     5    2    6 1
     6    2    3 2
     7    3    4 1
     8    4    5 2
     9    4    7 1
    10    5    6 1
    11    5   32 1
    12    7   12 ar
    13    7    8 ar
    14    8    9 ar
    15    8   33 1
    16    9   10 ar
    17    9   34 1
    18   10   11 ar
    19   10   13 1
    20   11   12 ar
    21   11   35 1
    22   12   36 1
    23   13   14 1
    24   13   37 1
    25   14   15 2
    26   14   16 2
    27   14   17 1
    28   17   22 ar
    29   17   18 ar
    30   18   19 ar
    31   18   38 1
    32   19   20 ar
    33   19   25 1
    34   20   21 ar
    35   20   39 1
    36   21   22 ar
    37   21   40 1
    38   22   23 1
    39   23   24 1
    40   24   41 1
    41   24   42 1
    42   24   43 1
    43   25   26 2
    44   25   44 1
    45   26   27 1
    46   26   45 1
    47   27   28 2
    48   27   46 1
@<TRIPOS>MOLECULE
ZINC19634521
   57    59     0     0     0
SMALL
USER_CHARGES
(1R,6S)-6-[[4-(2,5-dimethylphenyl)-3-isopropoxycarbonyl-2-thienyl]carbamoyl]cyclohex-3-ene-1-carboxylic acid
@<TRIPOS>ATOM
      1 C1          3.0745    3.7373   -2.0155 C.3       1 <0>        -0.1135
      2 C2          1.9185    3.2268   -1.1944 C.ar      1 <0>        -0.0959
      3 C3          1.0681    4.1209   -0.5686 C.ar      1 <0>        -0.1157
      4 C4          0.0045    3.6598    0.1859 C.ar      1 <0>        -0.1210
      5 C5         -0.2168    2.3036    0.3150 C.ar      1 <0>        -0.0633
      6 C6          0.6398    1.3979   -0.3088 C.ar      1 <0>        -0.0317
      7 C7          1.7101    1.8687   -1.0685 C.ar      1 <0>        -0.0951
      8 C8          0.4102   -0.0599   -0.1701 C.2       1 <0>        -0.0141
      9 C9          0.7218   -0.7243    0.9718 C.2       1 <0>        -0.2482
     10 S1          0.2527   -2.4034    0.6098 S.3       1 <0>         0.2252
     11 C10        -0.3245   -2.2046   -1.0100 C.2       1 <0>         0.1321
     12 C11        -0.1531   -0.8477   -1.2503 C.2       1 <0>        -0.2399
     13 C12        -0.5227   -0.2423   -2.5297 C.2       1 <0>         0.5483
     14 O1          0.2615   -0.2590   -3.4596 O.2       1 <0>        -0.5095
     15 O2         -1.7331    0.3343   -2.6784 O.3       1 <0>        -0.3391
     16 C13        -2.0318    0.9150   -3.9752 C.3       1 <0>         0.0803
     17 C14        -2.6835   -0.1417   -4.8693 C.3       1 <0>        -0.1694
     18 C15        -2.9904    2.0942   -3.7974 C.3       1 <0>        -0.1484
     19 N1         -0.8352   -3.1694   -1.8635 N.am      1 <0>        -0.6115
     20 C16        -0.9278   -4.4502   -1.4543 C.2       1 <0>         0.5344
     21 O3         -0.5643   -4.7583   -0.3390 O.2       1 <0>        -0.5060
     22 C17        -1.4832   -5.4995   -2.3825 C.3       1 <0>        -0.0803
     23 H1         -1.4046   -5.1194   -3.4118 H         1 <0>         0.0935
     24 C18        -0.6854   -6.7963   -2.2290 C.3       1 <0>        -0.0713
     25 C19        -0.9743   -7.4264   -0.8980 C.2       1 <0>        -0.1603
     26 C20        -1.9939   -7.1259   -0.1594 C.2       1 <0>        -0.1251
     27 C21        -3.0245   -6.0985   -0.5264 C.3       1 <0>        -0.0732
     28 C22        -2.9466   -5.7846   -2.0219 C.3       1 <0>        -0.1201
     29 H2         -3.3340   -6.6282   -2.6120 H         1 <0>         0.0880
     30 C23        -3.7894   -4.5739   -2.3300 C.2       1 <0>         0.4666
     31 O4         -3.2761   -3.5820   -2.7911 O.co2     1 <0>        -0.6390
     32 O5         -5.1102   -4.5974   -2.0922 O.co2     1 <0>        -0.7577
     33 C24        -1.3795    1.8029    1.1327 C.3       1 <0>        -0.1219
     34 H3          3.0784    4.8372   -1.9991 H         1 <0>         0.0631
     35 H4          2.9706    3.3864   -3.0528 H         1 <0>         0.0682
     36 H5          4.0182    3.3609   -1.5939 H         1 <0>         0.0676
     37 H6          1.2352    5.1831   -0.6700 H         1 <0>         0.1191
     38 H7         -0.6563    4.3624    0.6718 H         1 <0>         0.1220
     39 H8          2.3748    1.1717   -1.5572 H         1 <0>         0.1222
     40 H9          1.1496   -0.3294    1.8814 H         1 <0>         0.1848
     41 H10        -1.0736    1.2497   -4.3993 H         1 <0>         0.0791
     42 H11        -2.9098    0.2983   -5.8518 H         1 <0>         0.0692
     43 H12        -3.6149   -0.4936   -4.4018 H         1 <0>         0.0772
     44 H13        -1.9943   -0.9894   -4.9971 H         1 <0>         0.0615
     45 H14        -3.2167    2.5341   -4.7799 H         1 <0>         0.0755
     46 H15        -2.5218    2.8539   -3.1546 H         1 <0>         0.0607
     47 H16        -3.9218    1.7423   -3.3299 H         1 <0>         0.0708
     48 H17        -1.1650   -2.8899   -2.8750 H         1 <0>         0.4575
     49 H18        -0.9675   -7.4971   -3.0285 H         1 <0>         0.0803
     50 H19         0.3900   -6.5755   -2.2976 H         1 <0>         0.0682
     51 H20        -0.2549   -8.1866   -0.5595 H         1 <0>         0.0984
     52 H21        -2.1450   -7.6359    0.8034 H         1 <0>         0.0979
     53 H22        -4.0272   -6.4846   -0.2908 H         1 <0>         0.0765
     54 H23        -2.8430   -5.1765    0.0454 H         1 <0>         0.0704
     55 H24        -1.3914    0.7031    1.1180 H         1 <0>         0.0742
     56 H25        -2.3189    2.1855    0.7070 H         1 <0>         0.0706
     57 H26        -1.2768    2.1547    2.1699 H         1 <0>         0.0677
@<TRIPOS>BOND
     1    1    2 1
     2    1   34 1
     3    1   35 1
     4    1   36 1
     5    2    7 ar
     6    2    3 ar
     7    3    4 ar
     8    3   37 1
     9    4    5 ar
    10    4   38 1
    11    5    6 ar
    12    5   33 1
    13    6    7 ar
    14    6    8 1
    15    7   39 1
    16    8   12 1
    17    8    9 2
    18    9   10 1
    19    9   40 1
    20   10   11 1
    21   11   12 2
    22   11   19 1
    23   12   13 1
    24   13   14 2
    25   13   15 1
    26   15   16 1
    27   16   17 1
    28   16   18 1
    29   16   41 1
    30   17   42 1
    31   17   43 1
    32   17   44 1
    33   18   45 1
    34   18   46 1
    35   18   47 1
    36   19   20 am
    37   19   48 1
    38   20   21 2
    39   20   22 1
    40   22   23 1
    41   22   28 1
    42   22   24 1
    43   24   25 1
    44   24   49 1
    45   24   50 1
    46   25   26 2
    47   25   51 1
    48   26   27 1
    49   26   52 1
    50   27   28 1
    51   27   53 1
    52   27   54 1
    53   28   29 1
    54   28   30 1
    55   30   31 2
    56   30   32 1
    57   33   55 1
    58   33   56 1
    59   33   57 1
@<TRIPOS>MOLECULE
ZINC39533075
   56    58     0     0     0
SMALL
USER_CHARGES

@<TRIPOS>ATOM
      1 C1          0.3976    1.3247    1.3323 C.3       1 <0>        -0.1519
      2 C2          0.3064   -0.1962    1.1929 C.3       1 <0>        -0.1199
      3 C3         -1.0104   -0.5675    0.5079 C.3       1 <0>        -0.0755
      4 C4         -1.1002   -2.0655    0.3706 C.ar      1 <0>        -0.0988
      5 C5         -0.5993   -2.6874   -0.7578 C.ar      1 <0>        -0.1203
      6 C6         -0.6818   -4.0616   -0.8837 C.ar      1 <0>        -0.1142
      7 C7         -1.2647   -4.8138    0.1188 C.ar      1 <0>        -0.0617
      8 C8         -1.7648   -4.1919    1.2476 C.ar      1 <0>        -0.1039
      9 C9         -1.6785   -2.8182    1.3755 C.ar      1 <0>        -0.1244
     10 C10        -1.3555   -6.3117   -0.0189 C.3       1 <0>         0.1486
     11 H1         -1.8567   -6.5609   -0.9543 H         1 <0>         0.0869
     12 C11         0.0527   -6.9101   -0.0197 C.3       1 <0>         0.1368
     13 N1         -0.0367   -8.3691   -0.1176 N.2       1 <0>        -1.1807
     14 S1          1.3437   -9.2836   -0.1398 S.o2      1 <0>         2.6635
     15 O1          2.0199   -8.9688   -1.3493 O.2       1 <0>        -1.0681
     16 O2          1.9523   -9.1313    1.1352 O.2       1 <0>        -1.0500
     17 O3          0.9166  -10.7405   -0.2467 O.3       1 <0>        -0.6819
     18 C12         0.4857  -11.1009   -1.4842 C.ar      1 <0>         0.1143
     19 C13        -0.8548  -10.9731   -1.8177 C.ar      1 <0>        -0.1006
     20 C14        -1.2902  -11.3397   -3.0765 C.ar      1 <0>        -0.1106
     21 C15        -0.3913  -11.8339   -4.0034 C.ar      1 <0>        -0.1247
     22 C16         0.9452  -11.9626   -3.6734 C.ar      1 <0>        -0.1130
     23 C17         1.3867  -11.5917   -2.4180 C.ar      1 <0>        -0.1122
     24 N2         -2.1205   -6.8617    1.1081 N.3       1 <0>        -0.5113
     25 C18        -1.3192   -6.8585    2.3400 C.3       1 <0>        -0.0044
     26 C19        -2.1757   -7.3632    3.5038 C.3       1 <0>         0.0639
     27 N3         -2.6630   -8.7157    3.1994 N.3       1 <0>        -0.6785
     28 C20        -3.4643   -8.7189    1.9675 C.3       1 <0>         0.1415
     29 H2         -4.3277   -8.0656    2.0937 H         1 <0>         0.1076
     30 C21        -2.6079   -8.2142    0.8038 C.3       1 <0>         0.0102
     31 Br1        -4.0759  -10.5483    1.5875 Br        1 <0>        -0.1590
     32 H3          1.3357    1.5892    1.8203 H         1 <0>         0.0525
     33 H4          0.3604    1.7830    0.3441 H         1 <0>         0.0524
     34 H5         -0.4382    1.6854    1.9319 H         1 <0>         0.0525
     35 H6          1.1422   -0.5569    0.5934 H         1 <0>         0.0624
     36 H7          0.3436   -0.6545    2.1812 H         1 <0>         0.0624
     37 H8         -1.8461   -0.2068    1.1074 H         1 <0>         0.0665
     38 H9         -1.0476   -0.1091   -0.4804 H         1 <0>         0.0662
     39 H10        -0.1439   -2.0997   -1.5411 H         1 <0>         0.1136
     40 H11        -0.2910   -4.5474   -1.7656 H         1 <0>         0.1194
     41 H12        -2.2206   -4.7796    2.0308 H         1 <0>         0.1373
     42 H13        -2.0659   -2.3327    2.2590 H         1 <0>         0.1127
     43 H14         0.6117   -6.5224   -0.8714 H         1 <0>         0.0023
     44 H15         0.5634   -6.6385    0.9041 H         1 <0>         0.0025
     45 H16        -1.5575  -10.5878   -1.0937 H         1 <0>         0.1441
     46 H17        -2.3337  -11.2404   -3.3365 H         1 <0>         0.1282
     47 H18        -0.7337  -12.1203   -4.9869 H         1 <0>         0.1227
     48 H19         1.6454  -12.3493   -4.3991 H         1 <0>         0.1257
     49 H20         2.4315  -11.6883   -2.1621 H         1 <0>         0.1251
     50 H21        -0.4558   -7.5118    2.2139 H         1 <0>         0.0663
     51 H22        -0.9805   -5.8442    2.5509 H         1 <0>         0.0773
     52 H23        -1.5749   -7.3891    4.4129 H         1 <0>         0.0787
     53 H24        -3.0244   -6.6945    3.6474 H         1 <0>         0.0744
     54 H25        -1.8975   -9.3698    3.1345 H         1 <0>         0.3503
     55 H26        -3.2087   -8.1883   -0.1054 H         1 <0>         0.0701
     56 H27        -1.7591   -8.8829    0.6602 H         1 <0>         0.1272
@<TRIPOS>BOND
     1    1    2 1
     2    1   32 1
     3    1   33 1
     4    1   34 1
     5    2    3 1
     6    2   35 1
     7    2   36 1
     8    3    4 1
     9    3   37 1
    10    3   38 1
    11    4    9 ar
    12    4    5 ar
    13    5    6 ar
    14    5   39 1
    15    6    7 ar
    16    6   40 1
    17    7    8 ar
    18    7   10 1
    19    8    9 ar
    20    8   41 1
    21    9   42 1
    22   10   11 1
    23   10   12 1
    24   10   24 1
    25   12   13 1
    26   12   43 1
    27   12   44 1
    28   13   14 1
    29   14   15 2
    30   14   16 2
    31   14   17 1
    32   17   18 1
    33   18   23 ar
    34   18   19 ar
    35   19   20 ar
    36   19   45 1
    37   20   21 ar
    38   20   46 1
    39   21   22 ar
    40   21   47 1
    41   22   23 ar
    42   22   48 1
    43   23   49 1
    44   24   30 1
    45   24   25 1
    46   25   26 1
    47   25   50 1
    48   25   51 1
    49   26   27 1
    50   26   52 1
    51   26   53 1
    52   27   28 1
    53   27   54 1
    54   28   29 1
    55   28   30 1
    56   28   31 1
    57   30   55 1
    58   30   56 1
@<TRIPOS>MOLECULE
ZINC13543756
   65    68     0     0     0
SMALL
USER_CHARGES

@<TRIPOS>ATOM
      1 C1          1.5635    1.8502   -2.9411 C.3       1 <0>        -0.1105
      2 C2          1.4383    0.3605   -2.7508 C.ar      1 <0>        -0.1022
      3 C3          1.5296   -0.4855   -3.8403 C.ar      1 <0>        -0.1208
      4 C4          1.4148   -1.8520   -3.6657 C.ar      1 <0>        -0.1151
      5 C5          1.2092   -2.3725   -2.4017 C.ar      1 <0>        -0.0671
      6 C6          1.1188   -1.5266   -1.3122 C.ar      1 <0>        -0.1101
      7 C7          1.2379   -0.1604   -1.4861 C.ar      1 <0>        -0.1199
      8 C8          1.0831   -3.8621   -2.2116 C.3       1 <0>        -0.0339
      9 C9         -0.2800   -4.1861   -1.5941 C.3       1 <0>        -0.1436
     10 C10        -0.3797   -5.6701   -1.3558 C.2       1 <0>         0.3956
     11 O1         -1.4709   -6.2169   -1.3946 O.3       1 <0>        -0.5826
     12 C11         0.7623   -6.4256   -1.0918 C.2       1 <0>        -0.5077
     13 C12         0.6339   -7.8733   -0.8626 C.2       1 <0>         0.2586
     14 N1          1.6875   -8.5862   -0.6164 N.2       1 <0>        -0.5660
     15 C13         1.5596  -10.0277   -0.3882 C.3       1 <0>         0.0506
     16 C14         2.2711  -10.7867   -1.5101 C.3       1 <0>         0.0690
     17 N2          2.1429  -12.2321   -1.2813 N.3       1 <0>        -0.5403
     18 C15         2.8601  -12.6382   -0.0653 C.3       1 <0>         0.0416
     19 C16         2.5541  -14.1090    0.2370 C.3       1 <0>         0.0909
     20 N3          2.8602  -14.9057   -0.9609 N.pl3     1 <0>        -0.5211
     21 C17         2.2865  -14.4784   -2.2460 C.3       1 <0>         0.0932
     22 C18         2.6030  -12.9930   -2.4506 C.3       1 <0>         0.0445
     23 C19         3.6451  -15.9985   -0.8829 C.2       1 <0>         0.5685
     24 S1          4.4163  -16.3949    0.5932 S.2       1 <0>        -0.5873
     25 N4          3.8229  -16.7792   -1.9671 N.pl3     1 <0>        -0.6921
     26 C20         2.7770  -17.5864   -2.4269 C.ar      1 <0>         0.1883
     27 C21         1.5977  -17.6788   -1.6992 C.ar      1 <0>        -0.1700
     28 C22         0.5668  -18.4762   -2.1561 C.ar      1 <0>        -0.0751
     29 C23         0.7081  -19.1825   -3.3366 C.ar      1 <0>        -0.1548
     30 C24         1.8810  -19.0926   -4.0635 C.ar      1 <0>        -0.0789
     31 C25         2.9135  -18.2925   -3.6150 C.ar      1 <0>        -0.1665
     32 C26         2.0238   -5.8335   -1.0416 C.2       1 <0>         0.3929
     33 O2          3.0058   -6.5213   -0.8098 O.2       1 <0>        -0.5262
     34 C27         2.1868   -4.3537   -1.2711 C.3       1 <0>        -0.1483
     35 H1          2.6104    2.1409   -2.8540 H         1 <0>         0.0658
     36 H2          1.1916    2.1228   -3.9288 H         1 <0>         0.0622
     37 H3          0.9790    2.3643   -2.1781 H         1 <0>         0.0626
     38 H4          1.6902   -0.0789   -4.8278 H         1 <0>         0.1168
     39 H5          1.4854   -2.5129   -4.5170 H         1 <0>         0.1206
     40 H6          0.9579   -1.9332   -0.3247 H         1 <0>         0.1226
     41 H7          1.1711    0.5003   -0.6344 H         1 <0>         0.1174
     42 H8          1.1761   -4.3620   -3.1758 H         1 <0>         0.0786
     43 H9         -0.3849   -3.6577   -0.6465 H         1 <0>         0.0775
     44 H10        -1.0715   -3.8731   -2.2750 H         1 <0>         0.0711
     45 H11        -0.3386   -8.3417   -0.8997 H         1 <0>         0.0616
     46 H12         2.0126  -10.2856    0.5691 H         1 <0>         0.0584
     47 H13         0.5046  -10.3015   -0.3765 H         1 <0>         0.0267
     48 H14         1.8181  -10.5288   -2.4674 H         1 <0>         0.0708
     49 H15         3.3261  -10.5128   -1.5218 H         1 <0>         0.0430
     50 H16         3.9323  -12.5134   -0.2166 H         1 <0>         0.0448
     51 H17         2.5360  -12.0198    0.7718 H         1 <0>         0.1040
     52 H18         3.1709  -14.4477    1.0694 H         1 <0>         0.1321
     53 H19         1.4997  -14.2191    0.4904 H         1 <0>         0.0934
     54 H20         2.7264  -15.0613   -3.0552 H         1 <0>         0.0937
     55 H21         1.2064  -14.6239   -2.2313 H         1 <0>         0.0945
     56 H22         2.0926  -12.6319   -3.3434 H         1 <0>         0.0955
     57 H23         3.6788  -12.8633   -2.5686 H         1 <0>         0.0409
     58 H24         4.6762  -16.7814   -2.4285 H         1 <0>         0.4259
     59 H25         1.4871  -17.1280   -0.7768 H         1 <0>         0.1189
     60 H26        -0.3505  -18.5486   -1.5907 H         1 <0>         0.1261
     61 H27        -0.0993  -19.8059   -3.6914 H         1 <0>         0.1236
     62 H28         1.9882  -19.6455   -4.9850 H         1 <0>         0.1270
     63 H29         3.8278  -18.2195   -4.1852 H         1 <0>         0.1264
     64 H30         3.1607   -4.1607   -1.7210 H         1 <0>         0.0689
     65 H31         2.1146   -3.8276   -0.3193 H         1 <0>         0.0746
@<TRIPOS>BOND
     1    1    2 1
     2    1   35 1
     3    1   36 1
     4    1   37 1
     5    2    7 ar
     6    2    3 ar
     7    3    4 ar
     8    3   38 1
     9    4    5 ar
    10    4   39 1
    11    5    6 ar
    12    5    8 1
    13    6    7 ar
    14    6   40 1
    15    7   41 1
    16    8   34 1
    17    8    9 1
    18    8   42 1
    19    9   10 1
    20    9   43 1
    21    9   44 1
    22   10   11 1
    23   10   12 2
    24   12   32 1
    25   12   13 1
    26   13   45 1
    27   13   14 2
    28   14   15 1
    29   15   16 1
    30   15   46 1
    31   15   47 1
    32   16   17 1
    33   16   48 1
    34   16   49 1
    35   17   22 1
    36   17   18 1
    37   18   19 1
    38   18   50 1
    39   18   51 1
    40   19   20 1
    41   19   52 1
    42   19   53 1
    43   20   21 1
    44   20   23 1
    45   21   22 1
    46   21   54 1
    47   21   55 1
    48   22   56 1
    49   22   57 1
    50   23   24 2
    51   23   25 1
    52   25   26 1
    53   25   58 1
    54   26   31 ar
    55   26   27 ar
    56   27   28 ar
    57   27   59 1
    58   28   29 ar
    59   28   60 1
    60   29   30 ar
    61   29   61 1
    62   30   31 ar
    63   30   62 1
    64   31   63 1
    65   32   33 2
    66   32   34 1
    67   34   64 1
    68   34   65 1
@<TRIPOS>MOLECULE
ZINC64795691
   52    55     0     0     0
SMALL
USER_CHARGES

@<TRIPOS>ATOM
      1 C1         -0.0187    1.5258    0.0104 C.3       1 <0>        -0.1507
      2 C2          0.0021   -0.0041    0.0020 C.3       1 <0>         0.0515
      3 O1          0.6709   -0.4649   -1.1737 O.3       1 <0>        -0.3050
      4 C3          0.7768   -1.8109   -1.3363 C.ar      1 <0>         0.1065
      5 C4          0.2435   -2.6690   -0.3879 C.ar      1 <0>        -0.1599
      6 C5          0.3516   -4.0370   -0.5549 C.ar      1 <0>        -0.0714
      7 C6          0.9916   -4.5523   -1.6668 C.ar      1 <0>        -0.0989
      8 C7          1.5263   -3.7019   -2.6164 C.ar      1 <0>        -0.1669
      9 C8          1.4160   -2.3297   -2.4582 C.ar      1 <0>         0.0995
     10 O2          1.9361   -1.4917   -3.3945 O.3       1 <0>        -0.2993
     11 C9          2.5780   -2.0947   -4.5199 C.3       1 <0>         0.1697
     12 C10         3.0765   -1.0436   -5.4218 C.1       1 <0>        -0.1950
     13 C11         3.4741   -0.2053   -6.1412 C.1       1 <0>        -0.1627
     14 C12        -0.2290   -4.9686    0.4775 C.3       1 <0>         0.0555
     15 H1         -0.6908   -4.3893    1.2771 H         1 <0>         0.1042
     16 C13         0.8803   -5.8556    1.0559 C.3       1 <0>        -0.1250
     17 C14         1.2472   -6.9434    0.0868 C.2       1 <0>         0.5254
     18 O3          2.4136   -7.2605   -0.0146 O.2       1 <0>        -0.5422
     19 N1          0.3399   -7.5808   -0.6722 N.am      1 <0>        -0.6491
     20 C15        -0.9943   -7.0842   -0.7112 C.2       1 <0>         0.1237
     21 C16        -1.2553   -5.8556   -0.1619 C.2       1 <0>        -0.3146
     22 S1         -2.8876   -5.5953   -0.3626 S.3       1 <0>         0.2552
     23 C17        -3.3090   -7.0974   -1.2275 C.2       1 <0>        -0.1391
     24 C18        -2.0696   -7.7528   -1.2936 C.2       1 <0>        -0.1054
     25 C19        -1.9130   -9.0735   -1.9436 C.ar      1 <0>         0.0126
     26 C20        -1.1273   -9.2013   -3.0895 C.ar      1 <0>        -0.1065
     27 C21        -0.9845  -10.4345   -3.6907 C.ar      1 <0>        -0.1143
     28 C22        -1.6192  -11.5446   -3.1590 C.ar      1 <0>        -0.0366
     29 C23        -2.4005  -11.4236   -2.0221 C.ar      1 <0>        -0.1086
     30 C24        -2.5458  -10.1963   -1.4092 C.ar      1 <0>        -0.0460
     31 Cl1        -1.4350  -13.0935   -3.9209 Cl        1 <0>        -0.0875
     32 C25        -4.5654   -7.5193   -1.7176 C.2       1 <0>         0.5438
     33 O4         -5.5523   -6.8085   -1.5664 O.co2     1 <0>        -0.6764
     34 O5         -4.6683   -8.5962   -2.2938 O.co2     1 <0>        -0.6510
     35 H2          1.0039    1.9031    0.0027 H         1 <0>         0.0645
     36 H3         -0.5459    1.8868   -0.8726 H         1 <0>         0.0660
     37 H4         -0.5289    1.8773    0.9072 H         1 <0>         0.0774
     38 H5          0.5293   -0.3651    0.8851 H         1 <0>         0.0611
     39 H6         -1.0205   -0.3814    0.0098 H         1 <0>         0.0638
     40 H7         -0.2563   -2.2690    0.4819 H         1 <0>         0.1382
     41 H8          1.0743   -5.6217   -1.7935 H         1 <0>         0.1251
     42 H9          2.0261   -4.1070   -3.4839 H         1 <0>         0.1349
     43 H10         3.4131   -2.7058   -4.1775 H         1 <0>         0.0866
     44 H11         1.8634   -2.7219   -5.0528 H         1 <0>         0.0876
     45 H12         3.8297    0.5444   -6.7845 H         1 <0>         0.2243
     46 H13         1.7595   -5.2443    1.2597 H         1 <0>         0.1095
     47 H14         0.5327   -6.3052    1.9860 H         1 <0>         0.1075
     48 H15         0.5894   -8.3654   -1.1850 H         1 <0>         0.4100
     49 H16        -0.6322   -8.3361   -3.5052 H         1 <0>         0.1238
     50 H17        -0.3769  -10.5345   -4.5779 H         1 <0>         0.1278
     51 H18        -2.8938  -12.2925   -1.6122 H         1 <0>         0.1290
     52 H19        -3.1518  -10.1040   -0.5201 H         1 <0>         0.1274
@<TRIPOS>BOND
     1    1    2 1
     2    1   35 1
     3    1   36 1
     4    1   37 1
     5    2    3 1
     6    2   38 1
     7    2   39 1
     8    3    4 1
     9    4    9 ar
    10    4    5 ar
    11    5    6 ar
    12    5   40 1
    13    6    7 ar
    14    6   14 1
    15    7    8 ar
    16    7   41 1
    17    8    9 ar
    18    8   42 1
    19    9   10 1
    20   10   11 1
    21   11   12 1
    22   11   43 1
    23   11   44 1
    24   12   13 3
    25   13   45 1
    26   14   15 1
    27   14   21 1
    28   14   16 1
    29   16   17 1
    30   16   46 1
    31   16   47 1
    32   17   18 2
    33   17   19 am
    34   19   20 1
    35   19   48 1
    36   20   24 1
    37   20   21 2
    38   21   22 1
    39   22   23 1
    40   23   24 2
    41   23   32 1
    42   24   25 1
    43   25   30 ar
    44   25   26 ar
    45   26   27 ar
    46   26   49 1
    47   27   28 ar
    48   27   50 1
    49   28   29 ar
    50   28   31 1
    51   29   30 ar
    52   29   51 1
    53   30   52 1
    54   32   33 2
    55   32   34 1
@<TRIPOS>MOLECULE
ZINC27250550
   42    44     0     0     0
SMALL
USER_CHARGES
3-cyclopentyl-1-[[(1R,2R)-2-(4-fluorophenyl)cyclopropanecarbonyl]amino]thiourea
@<TRIPOS>ATOM
      1 C1          9.5980   -2.8807    2.8225 C.ar      1 <0>        -0.0939
      2 C2         10.1082   -4.1345    3.1008 C.ar      1 <0>        -0.1502
      3 C3         11.0700   -4.6892    2.2735 C.ar      1 <0>         0.0976
      4 C4         11.5157   -3.9890    1.1654 C.ar      1 <0>        -0.1486
      5 C5         11.0003   -2.7375    0.8862 C.ar      1 <0>        -0.0842
      6 C6         10.0398   -2.1848    1.7126 C.ar      1 <0>        -0.0935
      7 C7          9.4782   -0.8202    1.4069 C.3       1 <0>        -0.1065
      8 H1         10.3850   -0.5183    0.8623 H         1 <0>         0.1461
      9 C8          8.5724   -0.1766    2.4597 C.3       1 <0>        -0.1241
     10 C9          7.9719   -0.7153    1.1597 C.3       1 <0>        -0.1181
     11 H2          7.1691   -1.4213    0.9007 H         1 <0>         0.1415
     12 C10         7.5024    0.2908    0.1407 C.2       1 <0>         0.5210
     13 O1          8.3090    0.9785   -0.4488 O.2       1 <0>        -0.5236
     14 N1          6.1862    0.4266   -0.1155 N.am      1 <0>        -0.5581
     15 N2          5.7497    1.3620   -1.0627 N.pl3     1 <0>        -0.4824
     16 C11         4.4335    1.4977   -1.3189 C.2       1 <0>         0.5683
     17 S1          3.9002    2.6407   -2.4765 S.2       1 <0>        -0.6095
     18 N3          3.5372    0.7336   -0.6638 N.pl3     1 <0>        -0.6935
     19 C12         2.1065    0.8811   -0.9423 C.3       1 <0>         0.1331
     20 C13         1.4774    1.9387   -0.0016 C.3       1 <0>        -0.1328
     21 C14        -0.0188    1.5384    0.0105 C.3       1 <0>        -0.1215
     22 C15         0.0021   -0.0041    0.0020 C.3       1 <0>        -0.1182
     23 C16         1.3534   -0.4220   -0.6038 C.3       1 <0>        -0.1262
     24 F1         11.5734   -5.9126    2.5477 F         1 <0>        -0.1381
     25 H3          8.8510   -2.4459    3.4701 H         1 <0>         0.1360
     26 H4          9.7595   -4.6800    3.9653 H         1 <0>         0.1368
     27 H5         12.2662   -4.4205    0.5196 H         1 <0>         0.1381
     28 H6         11.3479   -2.1911    0.0219 H         1 <0>         0.1354
     29 H7          8.6484   -0.7391    3.4020 H         1 <0>         0.1211
     30 H8          8.8871    0.8640    2.6275 H         1 <0>         0.1186
     31 H9          5.4547   -0.1971    0.4192 H         1 <0>         0.4375
     32 H10         6.4812    1.9857   -1.5973 H         1 <0>         0.4886
     33 H11         3.8799   -0.0008    0.0800 H         1 <0>         0.3993
     34 H12         2.0733    1.1501   -2.0084 H         1 <0>         0.1276
     35 H13         1.9439    1.8692    0.9922 H         1 <0>         0.0660
     36 H14         1.6450    2.9439   -0.4158 H         1 <0>         0.0836
     37 H15        -0.4984    1.9397    0.9154 H         1 <0>         0.0704
     38 H16        -0.5156    1.9494   -0.8807 H         1 <0>         0.0736
     39 H17        -0.0985   -0.3778    1.0317 H         1 <0>         0.0681
     40 H18        -0.8336   -0.3788   -0.6073 H         1 <0>         0.0712
     41 H19         1.2066   -1.0097   -1.5220 H         1 <0>         0.0764
     42 H20         1.9417   -1.0088    0.1170 H         1 <0>         0.0674
@<TRIPOS>BOND
     1    1    6 ar
     2    1    2 ar
     3    1   25 1
     4    2    3 ar
     5    2   26 1
     6    3    4 ar
     7    3   24 1
     8    4    5 ar
     9    4   27 1
    10    5    6 ar
    11    5   28 1
    12    6    7 1
    13    7    8 1
    14    7   10 1
    15    7    9 1
    16    9   10 1
    17    9   29 1
    18    9   30 1
    19   10   11 1
    20   10   12 1
    21   12   13 2
    22   12   14 am
    23   14   15 1
    24   14   31 1
    25   15   16 1
    26   15   32 1
    27   16   17 2
    28   16   18 1
    29   18   19 1
    30   18   33 1
    31   19   23 1
    32   19   20 1
    33   19   34 1
    34   20   21 1
    35   20   35 1
    36   20   36 1
    37   21   22 1
    38   21   37 1
    39   21   38 1
    40   22   23 1
    41   22   39 1
    42   22   40 1
    43   23   41 1
    44   23   42 1
@<TRIPOS>MOLECULE
ZINC40296857
   40    41     0     0     0
SMALL
USER_CHARGES

@<TRIPOS>ATOM
      1 C1         -0.0049    1.4557    0.0126 C.3       1 <0>         0.1289
      2 N1          0.0046   -0.0093    0.0017 N.pl3     1 <0>        -0.6694
      3 C2          1.2780   -0.7334   -0.0175 C.3       1 <0>         0.1234
      4 C3         -1.1960   -0.7129    0.0096 C.ar      1 <0>         0.1801
      5 C4         -1.8071   -1.0613   -1.1882 C.ar      1 <0>        -0.0857
      6 C5         -2.9971   -1.7588   -1.1815 C.ar      1 <0>        -0.1585
      7 C6         -3.5946   -2.1187    0.0227 C.ar      1 <0>         0.2059
      8 C7         -2.9983   -1.7796    1.2241 C.ar      1 <0>        -0.1633
      9 C8         -1.7898   -1.0776    1.2271 C.ar      1 <0>        -0.1053
     10 C9         -1.1453   -0.7174    2.5030 C.2       1 <0>         0.5593
     11 O1         -0.0960   -0.1025    2.5020 O.2       1 <0>        -0.4926
     12 N2         -1.7189   -1.0696    3.6707 N.am      1 <0>        -0.6740
     13 C10        -1.0599   -0.8135    4.8800 C.ar      1 <0>         0.1439
     14 C11        -1.1729   -1.7092    5.9354 C.ar      1 <0>        -0.1266
     15 C12        -0.5237   -1.4572    7.1272 C.ar      1 <0>        -0.0802
     16 C13         0.2433   -0.3075    7.2708 C.ar      1 <0>        -0.0979
     17 C14         0.3565    0.5882    6.2145 C.ar      1 <0>        -0.1144
     18 C15        -0.2891    0.3331    5.0214 C.ar      1 <0>        -0.0988
     19 S1          1.0718    0.0149    8.7922 S.3       1 <0>        -0.1214
     20 C16         1.9221    1.5910    8.5034 C.3       1 <0>        -0.1435
     21 N3         -4.8031   -2.8259    0.0183 N.pl3     1 <0>        -0.8792
     22 H1          1.0204    1.8257    0.0042 H         1 <0>         0.0622
     23 H2         -0.5307    1.8222   -0.8691 H         1 <0>         0.0336
     24 H3         -0.5113    1.8091    0.9107 H         1 <0>         0.0369
     25 H4          1.6049   -0.9206    1.0053 H         1 <0>         0.0385
     26 H5          1.1482   -1.6829   -0.5369 H         1 <0>         0.0469
     27 H6          2.0282   -0.1356   -0.5351 H         1 <0>         0.0538
     28 H7         -1.3497   -0.7852   -2.1267 H         1 <0>         0.1306
     29 H8         -3.4679   -2.0267   -2.1159 H         1 <0>         0.1269
     30 H9         -3.4639   -2.0597    2.1575 H         1 <0>         0.1221
     31 H10        -2.5880   -1.5003    3.6737 H         1 <0>         0.4083
     32 H11        -1.7691   -2.6027    5.8237 H         1 <0>         0.1308
     33 H12        -0.6122   -2.1534    7.9482 H         1 <0>         0.1323
     34 H13         0.9526    1.4819    6.3258 H         1 <0>         0.1260
     35 H14        -0.1978    1.0271    4.1990 H         1 <0>         0.1428
     36 H15         2.6183    1.4812    7.6719 H         1 <0>         0.0843
     37 H16         1.1888    2.3610    8.2639 H         1 <0>         0.0841
     38 H17         2.4703    1.8778    9.4008 H         1 <0>         0.1098
     39 H18        -5.2226   -3.0641   -0.8232 H         1 <0>         0.4005
     40 H19        -5.2208   -3.0775    0.8568 H         1 <0>         0.3990
@<TRIPOS>BOND
     1    1    2 1
     2    1   22 1
     3    1   23 1
     4    1   24 1
     5    2    3 1
     6    2    4 1
     7    3   25 1
     8    3   26 1
     9    3   27 1
    10    4    9 ar
    11    4    5 ar
    12    5    6 ar
    13    5   28 1
    14    6    7 ar
    15    6   29 1
    16    7    8 ar
    17    7   21 1
    18    8    9 ar
    19    8   30 1
    20    9   10 1
    21   10   11 2
    22   10   12 am
    23   12   13 1
    24   12   31 1
    25   13   18 ar
    26   13   14 ar
    27   14   15 ar
    28   14   32 1
    29   15   16 ar
    30   15   33 1
    31   16   17 ar
    32   16   19 1
    33   17   18 ar
    34   17   34 1
    35   18   35 1
    36   19   20 1
    37   20   36 1
    38   20   37 1
    39   20   38 1
    40   21   39 1
    41   21   40 1
@<TRIPOS>MOLECULE
ZINC42859062
   41    42     0     0     0
SMALL
USER_CHARGES

@<TRIPOS>ATOM
      1 C1         -0.0187    1.5258    0.0104 C.3       1 <0>        -0.1591
      2 C2          0.0021   -0.0041    0.0020 C.3       1 <0>        -0.0848
      3 H1         -1.0205   -0.3814    0.0098 H         1 <0>         0.0718
      4 C3          0.7182   -0.4975   -1.2568 C.3       1 <0>        -0.1135
      5 C4          2.1536    0.0321   -1.2676 C.3       1 <0>        -0.1236
      6 C5          2.8936   -0.4747   -0.0281 C.3       1 <0>        -0.1198
      7 C6          2.1775    0.0187    1.2307 C.3       1 <0>        -0.1201
      8 C7          0.7421   -0.5109    1.2415 C.3       1 <0>        -0.0864
      9 H2          0.7568   -1.6008    1.2356 H         1 <0>         0.0791
     10 C8          0.0259   -0.0175    2.5003 C.3       1 <0>         0.1161
     11 N1          0.6628   -0.5996    3.6843 N.pl3     1 <0>        -1.1125
     12 S1          0.3534    0.0296    5.1846 S.o2      1 <0>         2.6996
     13 O1          1.0869   -0.7564    6.1138 O.2       1 <0>        -0.9467
     14 O2          0.5211    1.4366    5.0774 O.2       1 <0>        -0.9422
     15 C9         -1.3527   -0.2497    5.5250 C.ar      1 <0>        -0.8194
     16 C10        -2.2953    0.6946    5.1542 C.ar      1 <0>         0.2713
     17 C11        -3.6353    0.4775    5.4208 C.ar      1 <0>        -0.2640
     18 C12        -4.0350   -0.6886    6.0605 C.ar      1 <0>         0.3218
     19 C13        -3.0880   -1.6345    6.4311 C.ar      1 <0>        -0.2645
     20 C14        -1.7496   -1.4157    6.1578 C.ar      1 <0>         0.2745
     21 F1         -0.8285   -2.3380    6.5131 F         1 <0>        -0.1028
     22 N2         -5.3872   -0.9096    6.3311 N.pl3     1 <0>        -0.8501
     23 F2         -1.9059    1.8288    4.5320 F         1 <0>        -0.1028
     24 H3          1.0039    1.9031    0.0027 H         1 <0>         0.0646
     25 H4         -0.5459    1.8868   -0.8726 H         1 <0>         0.0556
     26 H5         -0.5289    1.8773    0.9072 H         1 <0>         0.0578
     27 H6          0.7330   -1.5874   -1.2628 H         1 <0>         0.0616
     28 H7          0.1910   -0.1364   -2.1398 H         1 <0>         0.0633
     29 H8          2.6638   -0.3194   -2.1644 H         1 <0>         0.0601
     30 H9          2.1388    1.1220   -1.2617 H         1 <0>         0.0660
     31 H10         2.9084   -1.5646   -0.0341 H         1 <0>         0.0610
     32 H11         3.9162   -0.0975   -0.0359 H         1 <0>         0.0624
     33 H12         2.7046   -0.3424    2.1137 H         1 <0>         0.0643
     34 H13         2.1627    1.1086    1.2367 H         1 <0>         0.0707
     35 H14         0.0885    1.0695    2.5515 H         1 <0>         0.0866
     36 H15        -1.0207   -0.3199    2.4651 H         1 <0>         0.0628
     37 H16         1.2656   -1.3535    3.5895 H         1 <0>         0.4198
     38 H17        -4.3700    1.2146    5.1321 H         1 <0>         0.1507
     39 H18        -3.3965   -2.5419    6.9289 H         1 <0>         0.1506
     40 H19        -6.0480   -0.2484    6.0722 H         1 <0>         0.4102
     41 H20        -5.6656   -1.7244    6.7779 H         1 <0>         0.4102
@<TRIPOS>BOND
     1    1    2 1
     2    1   24 1
     3    1   25 1
     4    1   26 1
     5    2    3 1
     6    2    8 1
     7    2    4 1
     8    4    5 1
     9    4   27 1
    10    4   28 1
    11    5    6 1
    12    5   29 1
    13    5   30 1
    14    6    7 1
    15    6   31 1
    16    6   32 1
    17    7    8 1
    18    7   33 1
    19    7   34 1
    20    8    9 1
    21    8   10 1
    22   10   11 1
    23   10   35 1
    24   10   36 1
    25   11   12 1
    26   11   37 1
    27   12   13 2
    28   12   14 2
    29   12   15 1
    30   15   20 ar
    31   15   16 ar
    32   16   17 ar
    33   16   23 1
    34   17   18 ar
    35   17   38 1
    36   18   19 ar
    37   18   22 1
    38   19   20 ar
    39   19   39 1
    40   20   21 1
    41   22   40 1
    42   22   41 1
@<TRIPOS>MOLECULE
ZINC49541377
   38    39     0     0     0
SMALL
USER_CHARGES

@<TRIPOS>ATOM
      1 C1          0.1295    1.6235    0.1608 C.3       1 <0>        -0.1529
      2 C2          0.0566    0.0963    0.1054 C.3       1 <0>        -0.1268
      3 C3          0.7795   -0.4037   -1.1469 C.3       1 <0>        -0.1221
      4 C4          0.8070   -1.9335   -1.1434 C.3       1 <0>         0.2410
      5 H1         -0.2088   -2.3149   -1.0397 H         1 <0>         0.1126
      6 C5          1.3997   -2.4283   -2.4376 C.2       1 <0>        -0.1599
      7 C6          0.7680   -2.8940   -3.5427 C.2       1 <0>        -0.1456
      8 C7          1.5244   -3.2978   -4.6270 C.2       1 <0>        -0.1552
      9 C8          2.8753   -3.2161   -4.5530 C.2       1 <0>        -0.1731
     10 S1          3.1157   -2.5457   -2.9159 S.3       1 <0>         0.0487
     11 N1          1.6224   -2.4046   -0.0212 N.pl3     1 <0>        -1.1083
     12 S2          0.9891   -3.4780    1.0693 S.o2      1 <0>         2.6895
     13 O1          2.0169   -3.7544    2.0109 O.2       1 <0>        -0.9553
     14 O2         -0.2790   -2.9653    1.4543 O.2       1 <0>        -0.9478
     15 C9          0.6825   -4.9812    0.2027 C.ar      1 <0>        -0.6250
     16 C10        -0.5402   -5.1886   -0.4096 C.ar      1 <0>        -0.0809
     17 C11        -0.7851   -6.3669   -1.0902 C.ar      1 <0>        -0.0879
     18 C12         0.1916   -7.3411   -1.1612 C.ar      1 <0>        -0.1428
     19 C13         1.4207   -7.1359   -0.5479 C.ar      1 <0>         0.2000
     20 C14         1.6653   -5.9486    0.1309 C.ar      1 <0>        -0.0964
     21 N2          2.4105   -8.1189   -0.6176 N.pl3     1 <0>        -0.8764
     22 H2          1.1731    1.9365    0.1943 H         1 <0>         0.0536
     23 H3         -0.3471    2.0424   -0.7254 H         1 <0>         0.0544
     24 H4         -0.3854    1.9797    1.0530 H         1 <0>         0.0567
     25 H5          0.5333   -0.3226    0.9917 H         1 <0>         0.0652
     26 H6         -0.9870   -0.2167    0.0719 H         1 <0>         0.0703
     27 H7          0.2539   -0.0519   -2.0347 H         1 <0>         0.0821
     28 H8          1.8004   -0.0220   -1.1540 H         1 <0>         0.0747
     29 H9         -0.3101   -2.9491   -3.5755 H         1 <0>         0.1342
     30 H10         1.0460   -3.6732   -5.5196 H         1 <0>         0.1337
     31 H11         3.6144   -3.4834   -5.2937 H         1 <0>         0.1846
     32 H12         2.5333   -2.0878    0.0831 H         1 <0>         0.4209
     33 H13        -1.3055   -4.4285   -0.3556 H         1 <0>         0.1356
     34 H14        -1.7412   -6.5259   -1.5666 H         1 <0>         0.1321
     35 H15        -0.0005   -8.2614   -1.6927 H         1 <0>         0.1277
     36 H16         2.6214   -5.7842    0.6055 H         1 <0>         0.1363
     37 H17         2.2399   -8.9460   -1.0949 H         1 <0>         0.4009
     38 H18         3.2685   -7.9745   -0.1889 H         1 <0>         0.4016
@<TRIPOS>BOND
     1    1    2 1
     2    1   22 1
     3    1   23 1
     4    1   24 1
     5    2    3 1
     6    2   25 1
     7    2   26 1
     8    3    4 1
     9    3   27 1
    10    3   28 1
    11    4    5 1
    12    4    6 1
    13    4   11 1
    14    6   10 1
    15    6    7 2
    16    7    8 1
    17    7   29 1
    18    8    9 2
    19    8   30 1
    20    9   10 1
    21    9   31 1
    22   11   12 1
    23   11   32 1
    24   12   13 2
    25   12   14 2
    26   12   15 1
    27   15   20 ar
    28   15   16 ar
    29   16   17 ar
    30   16   33 1
    31   17   18 ar
    32   17   34 1
    33   18   19 ar
    34   18   35 1
    35   19   20 ar
    36   19   21 1
    37   20   36 1
    38   21   37 1
    39   21   38 1
@<TRIPOS>MOLECULE
ZINC63099095
   28    28     0     0     0
SMALL
USER_CHARGES

@<TRIPOS>ATOM
      1 C1          0.0735    1.4046    0.4222 C.ar      1 <0>        -0.2007
      2 C2          1.2717    2.0678    0.2334 C.ar      1 <0>         0.0734
      3 C3          2.3891    1.3723   -0.1934 C.ar      1 <0>        -0.1786
      4 C4          2.3108    0.0113   -0.4324 C.ar      1 <0>         0.1064
      5 C5          1.1154   -0.6567   -0.2458 C.ar      1 <0>        -0.7572
      6 C6         -0.0080    0.0390    0.1831 C.ar      1 <0>         0.3348
      7 N1         -1.2171   -0.6337    0.3735 N.pl3     1 <0>        -0.8559
      8 S1          1.0163   -2.3892   -0.5514 S.o2      1 <0>         2.6963
      9 O1         -0.3348   -2.6643   -0.8950 O.2       1 <0>        -0.9514
     10 O2          2.1016   -2.7129   -1.4096 O.2       1 <0>        -0.9285
     11 N2          1.3047   -3.1575    0.8869 N.pl3     1 <0>        -1.1141
     12 C7          0.3679   -3.0000    2.0022 C.3       1 <0>         0.1089
     13 C8          0.6439   -4.0746    3.0557 C.3       1 <0>        -0.1768
     14 C9         -0.3345   -3.9101    4.2205 C.3       1 <0>         0.4567
     15 F1         -1.6455   -4.0434    3.7507 F         1 <0>        -0.1799
     16 F2         -0.0821   -4.8928    5.1838 F         1 <0>        -0.1779
     17 F3         -0.1704   -2.6438    4.7920 F         1 <0>        -0.1804
     18 Cl1         3.7152   -0.8574   -0.9678 Cl        1 <0>        -0.0088
     19 Cl2         1.3744    3.7749    0.5315 Cl        1 <0>        -0.0385
     20 H1         -0.7972    1.9471    0.7596 H         1 <0>         0.1499
     21 H2          3.3241    1.8924   -0.3406 H         1 <0>         0.1523
     22 H3         -2.0472   -0.1345    0.4236 H         1 <0>         0.4133
     23 H4         -1.2267   -1.6002    0.4556 H         1 <0>         0.4093
     24 H5          2.0939   -3.7117    0.9910 H         1 <0>         0.4256
     25 H6          0.4957   -2.0133    2.4475 H         1 <0>         0.0829
     26 H7         -0.6535   -3.1038    1.6362 H         1 <0>         0.0907
     27 H8          0.5160   -5.0613    2.6104 H         1 <0>         0.1247
     28 H9          1.6653   -3.9708    3.4217 H         1 <0>         0.1234
@<TRIPOS>BOND
     1    1    6 ar
     2    1    2 ar
     3    1   20 1
     4    2    3 ar
     5    2   19 1
     6    3    4 ar
     7    3   21 1
     8    4    5 ar
     9    4   18 1
    10    5    6 ar
    11    5    8 1
    12    6    7 1
    13    7   22 1
    14    7   23 1
    15    8    9 2
    16    8   10 2
    17    8   11 1
    18   11   12 1
    19   11   24 1
    20   12   13 1
    21   12   25 1
    22   12   26 1
    23   13   14 1
    24   13   27 1
    25   13   28 1
    26   14   15 1
    27   14   16 1
    28   14   17 1
@<TRIPOS>MOLECULE
ZINC13315213
   39    40     0     0     0
SMALL
USER_CHARGES
2,4-dichloro-5-[3-(cyclopropylmethoxy)propylsulfamoyl]benzoic acid
@<TRIPOS>ATOM
      1 C1         -3.1201   -5.9063    1.7254 C.ar      1 <0>         0.0445
      2 C2         -2.5229   -6.6877    2.7179 C.ar      1 <0>        -0.1188
      3 C3         -1.1319   -6.6866    2.8569 C.ar      1 <0>         0.0499
      4 C4         -0.3581   -5.9143    2.0135 C.ar      1 <0>        -0.1367
      5 C5         -0.9570   -5.1470    1.0293 C.ar      1 <0>         0.0507
      6 C6         -2.3359   -5.1401    0.8903 C.ar      1 <0>        -0.6870
      7 S1         -3.0879   -4.1548   -0.3620 S.o2      1 <0>         2.6984
      8 O1         -4.4910   -4.3422   -0.2383 O.2       1 <0>        -0.9479
      9 O2         -2.3865   -4.4257   -1.5677 O.2       1 <0>        -0.9447
     10 N1         -2.7870   -2.5706    0.0149 N.pl3     1 <0>        -1.1118
     11 C7         -1.4126   -2.0635    0.0045 C.3       1 <0>         0.1103
     12 C8         -1.4333   -0.5336    0.0129 C.3       1 <0>        -0.1278
     13 C9          0.0021   -0.0041    0.0020 C.3       1 <0>         0.0638
     14 O3         -0.0173    1.4248    0.0099 O.3       1 <0>        -0.3848
     15 C10         1.2801    2.0237    0.0007 C.3       1 <0>         0.0929
     16 C11         1.1386    3.5471    0.0102 C.3       1 <0>        -0.1538
     17 C12         1.6594    4.3126   -1.2078 C.3       1 <0>        -0.1777
     18 C13         2.4207    4.3750    0.1187 C.3       1 <0>        -0.1745
     19 Cl1         0.0231   -4.1837   -0.0314 Cl        1 <0>        -0.0486
     20 Cl2        -0.3795   -7.6533    4.0870 Cl        1 <0>        -0.0159
     21 C14        -3.3568   -7.5108    3.6151 C.2       1 <0>         0.4856
     22 O4         -2.8347   -8.1892    4.4771 O.co2     1 <0>        -0.5983
     23 H1         -4.1942   -5.9025    1.6131 H         1 <0>         0.1703
     24 H2          0.7168   -5.9124    2.1191 H         1 <0>         0.1485
     25 H3         -3.5207   -1.9784    0.2425 H         1 <0>         0.4210
     26 H4         -0.9024   -2.4150   -0.8923 H         1 <0>         0.0852
     27 H5         -0.8854   -2.4246    0.8875 H         1 <0>         0.0754
     28 H6         -1.9435   -0.1821    0.9097 H         1 <0>         0.0811
     29 H7         -1.9605   -0.1726   -0.8702 H         1 <0>         0.0811
     30 H8          0.5123   -0.3556   -0.8948 H         1 <0>         0.0523
     31 H9          0.5293   -0.3651    0.8851 H         1 <0>         0.0544
     32 H10         1.8338    1.7047    0.8837 H         1 <0>         0.0541
     33 H11         1.8168    1.7143   -0.8961 H         1 <0>         0.0505
     34 H12         0.2469    3.9334    0.5039 H         1 <0>         0.1140
     35 H13         2.1028    3.7309   -2.0160 H         1 <0>         0.0951
     36 H14         1.1105    5.2027   -1.5153 H         1 <0>         0.0959
     37 H15         2.3723    5.3061    0.6833 H         1 <0>         0.0981
     38 H16         3.3649    3.8344    0.1836 H         1 <0>         0.0952
     39 O5         -4.6972   -7.5099    3.4781 O.co2     1 <0>        -0.7399
@<TRIPOS>BOND
     1    1    6 ar
     2    1    2 ar
     3    1   23 1
     4    2    3 ar
     5    2   21 1
     6    3    4 ar
     7    3   20 1
     8    4    5 ar
     9    4   24 1
    10    5    6 ar
    11    5   19 1
    12    6    7 1
    13    7    8 2
    14    7    9 2
    15    7   10 1
    16   10   11 1
    17   10   25 1
    18   11   12 1
    19   11   26 1
    20   11   27 1
    21   12   13 1
    22   12   28 1
    23   12   29 1
    24   13   14 1
    25   13   30 1
    26   13   31 1
    27   14   15 1
    28   15   16 1
    29   15   32 1
    30   15   33 1
    31   16   18 1
    32   16   17 1
    33   16   34 1
    34   17   18 1
    35   17   35 1
    36   17   36 1
    37   18   37 1
    38   18   38 1
    39   21   22 2
    40   21   39 1
@<TRIPOS>MOLECULE
ZINC37836811
   35    35     0     0     0
SMALL
USER_CHARGES

@<TRIPOS>ATOM
      1 C1         -0.0207    0.5318    1.1535 C.3       1 <0>        -0.1517
      2 C2         -0.0214   -0.9159    0.6585 C.3       1 <0>        -0.1171
      3 C3          0.7166   -0.9978   -0.6792 C.3       1 <0>        -0.1491
      4 C4          0.7159   -2.4455   -1.1742 C.3       1 <0>         0.1086
      5 N1          1.3040   -2.5036   -2.5147 N.pl3     1 <0>        -0.9869
      6 C5          2.7460   -2.3143   -2.6908 C.3       1 <0>         0.1216
      7 C6          3.4652   -3.6477   -2.4773 C.3       1 <0>         0.0562
      8 O1          3.0770   -4.5674   -3.4998 O.3       1 <0>        -0.5550
      9 S1          0.3388   -2.7831   -3.8310 S.o2      1 <0>         2.6994
     10 O2          1.1985   -3.1940   -4.8852 O.2       1 <0>        -0.9317
     11 O3         -0.7456   -3.5815   -3.3772 O.2       1 <0>        -0.9523
     12 C7         -0.3450   -1.2327   -4.3142 C.2       1 <0>        -0.6815
     13 C8          0.0410   -0.6383   -5.4884 C.2       1 <0>        -0.0765
     14 C9         -0.5606    0.5822   -5.7732 C.2       1 <0>        -0.1709
     15 S2         -1.6280    0.8024   -4.3624 S.3       1 <0>         0.3060
     16 C10        -1.2664   -0.6122   -3.5313 C.2       1 <0>        -0.2013
     17 Br1        -1.9770   -1.2042   -1.8820 Br        1 <0>         0.0462
     18 C11        -0.3741    1.4298   -6.8926 C.2       1 <0>         0.5481
     19 O4          0.4114    1.1121   -7.7775 O.co2     1 <0>        -0.6593
     20 O5         -0.9983    2.4807   -6.9759 O.co2     1 <0>        -0.6754
     21 H1          1.0070    0.8706    1.2842 H         1 <0>         0.0540
     22 H2         -0.5222    1.1660    0.4225 H         1 <0>         0.0574
     23 H3         -0.5465    0.5902    2.1066 H         1 <0>         0.0523
     24 H4          0.4800   -1.5501    1.3896 H         1 <0>         0.0628
     25 H5         -1.0491   -1.2547    0.5278 H         1 <0>         0.0561
     26 H6          0.2151   -0.3636   -1.4103 H         1 <0>         0.0735
     27 H7          1.7443   -0.6590   -0.5485 H         1 <0>         0.0672
     28 H8          1.3021   -3.0626   -0.4933 H         1 <0>         0.0745
     29 H9         -0.3083   -2.8166   -1.2104 H         1 <0>         0.0969
     30 H10         2.9444   -1.9519   -3.6995 H         1 <0>         0.0946
     31 H11         3.1081   -1.5859   -1.9653 H         1 <0>         0.0937
     32 H12         4.5429   -3.4902   -2.5203 H         1 <0>         0.0550
     33 H13         3.1960   -4.0537   -1.5022 H         1 <0>         0.0469
     34 H14         3.4954   -5.4361   -3.4269 H         1 <0>         0.3741
     35 H15         0.7663   -1.0893   -6.1494 H         1 <0>         0.1637
@<TRIPOS>BOND
     1    1    2 1
     2    1   21 1
     3    1   22 1
     4    1   23 1
     5    2    3 1
     6    2   24 1
     7    2   25 1
     8    3    4 1
     9    3   26 1
    10    3   27 1
    11    4    5 1
    12    4   28 1
    13    4   29 1
    14    5    6 1
    15    5    9 1
    16    6    7 1
    17    6   30 1
    18    6   31 1
    19    7    8 1
    20    7   32 1
    21    7   33 1
    22    8   34 1
    23    9   10 2
    24    9   11 2
    25    9   12 1
    26   12   16 2
    27   12   13 1
    28   13   14 2
    29   13   35 1
    30   14   15 1
    31   14   18 1
    32   15   16 1
    33   16   17 1
    34   18   19 2
    35   18   20 1
@<TRIPOS>MOLECULE
ZINC44296075
   43    43     0     0     0
SMALL
USER_CHARGES

@<TRIPOS>ATOM
      1 C1         -0.0187    1.5258    0.0104 C.3       1 <0>        -0.1839
      2 C2          0.0021   -0.0041    0.0020 C.3       1 <0>         0.1356
      3 C3          0.7421   -0.5109    1.2415 C.3       1 <0>        -0.1854
      4 C4         -1.4333   -0.5336    0.0129 C.3       1 <0>        -0.1368
      5 O1          0.6709   -0.4649   -1.1737 O.3       1 <0>        -0.3656
      6 C5          1.9522   -0.0848   -1.3367 C.2       1 <0>         0.6541
      7 O2          2.4879    0.6189   -0.5034 O.2       1 <0>        -0.5680
      8 N1          2.6407   -0.4850   -2.4240 N.am      1 <0>        -0.6775
      9 C6          4.0349   -0.0714   -2.6014 C.3       1 <0>         0.0853
     10 H1          4.1672    0.9374   -2.2104 H         1 <0>         0.1089
     11 C7          4.3875   -0.0917   -4.0900 C.3       1 <0>        -0.1045
     12 C8          3.5687    0.9456   -4.8144 C.ar      1 <0>         0.0173
     13 C9          2.3805    0.5868   -5.4233 C.ar      1 <0>        -0.1191
     14 C10         1.6296    1.5381   -6.0877 C.ar      1 <0>        -0.0372
     15 C11         2.0664    2.8487   -6.1429 C.ar      1 <0>        -0.2019
     16 C12         3.2538    3.2076   -5.5333 C.ar      1 <0>        -0.0186
     17 C13         4.0028    2.2568   -4.8651 C.ar      1 <0>        -0.1843
     18 C14         5.2949    2.6492   -4.1960 C.3       1 <0>         0.5080
     19 F1          5.5202    4.0172   -4.3830 F         1 <0>        -0.1806
     20 F2          5.2138    2.3728   -2.8270 F         1 <0>        -0.1521
     21 F3          6.3502    1.9219   -4.7569 F         1 <0>        -0.1681
     22 C15         1.2482    3.8858   -6.8681 C.3       1 <0>         0.5141
     23 F4          0.1002    3.2871   -7.3981 F         1 <0>        -0.1760
     24 F5          0.8769    4.8957   -5.9739 F         1 <0>        -0.1746
     25 F6          2.0077    4.4374   -7.9053 F         1 <0>        -0.1756
     26 C16         4.9389   -1.0207   -1.8580 C.2       1 <0>         0.4930
     27 O3          4.4878   -2.0531   -1.3920 O.co2     1 <0>        -0.6807
     28 O4          6.1214   -0.7564   -1.7227 O.co2     1 <0>        -0.6860
     29 H2          1.0039    1.9031    0.0027 H         1 <0>         0.0896
     30 H3         -0.5459    1.8868   -0.8726 H         1 <0>         0.0545
     31 H4         -0.5289    1.8773    0.9072 H         1 <0>         0.0638
     32 H5          0.2319   -0.1594    2.1383 H         1 <0>         0.0621
     33 H6          0.7568   -1.6008    1.2356 H         1 <0>         0.0588
     34 H7          1.7647   -0.1336    1.2338 H         1 <0>         0.0917
     35 H8         -1.9605   -0.1726   -0.8702 H         1 <0>         0.0624
     36 H9         -1.4185   -1.6235    0.0069 H         1 <0>         0.0648
     37 H10        -1.9435   -0.1821    0.9097 H         1 <0>         0.0748
     38 H11         2.2131   -1.0467   -3.0892 H         1 <0>         0.3933
     39 H12         5.4474    0.1295   -4.2154 H         1 <0>         0.1108
     40 H13         4.1709   -1.0777   -4.5013 H         1 <0>         0.0923
     41 H14         2.0392   -0.4370   -5.3802 H         1 <0>         0.1472
     42 H15         0.7017    1.2577   -6.5640 H         1 <0>         0.1466
     43 H16         3.5952    4.2313   -5.5767 H         1 <0>         0.1474
@<TRIPOS>BOND
     1    1    2 1
     2    1   29 1
     3    1   30 1
     4    1   31 1
     5    2    3 1
     6    2    4 1
     7    2    5 1
     8    3   32 1
     9    3   33 1
    10    3   34 1
    11    4   35 1
    12    4   36 1
    13    4   37 1
    14    5    6 1
    15    6    7 2
    16    6    8 am
    17    8    9 1
    18    8   38 1
    19    9   10 1
    20    9   11 1
    21    9   26 1
    22   11   12 1
    23   11   39 1
    24   11   40 1
    25   12   17 ar
    26   12   13 ar
    27   13   14 ar
    28   13   41 1
    29   14   15 ar
    30   14   42 1
    31   15   16 ar
    32   15   22 1
    33   16   17 ar
    34   16   43 1
    35   17   18 1
    36   18   19 1
    37   18   20 1
    38   18   21 1
    39   22   23 1
    40   22   24 1
    41   22   25 1
    42   26   27 2
    43   26   28 1
@<TRIPOS>MOLECULE
ZINC62066261
   46    47     0     0     0
SMALL
USER_CHARGES

@<TRIPOS>ATOM
      1 C1         -0.0187    1.5258    0.0104 C.3       1 <0>        -0.1466
      2 C2          0.0021   -0.0041    0.0020 C.3       1 <0>        -0.0657
      3 C3          0.7182   -0.4975   -1.2568 C.3       1 <0>        -0.1448
      4 C4          0.7309   -0.5033    1.2229 C.ar      1 <0>        -0.0213
      5 C5          2.0501   -0.1479    1.4338 C.ar      1 <0>        -0.1380
      6 C6          2.7187   -0.6058    2.5537 C.ar      1 <0>        -0.0157
      7 C7          2.0680   -1.4188    3.4630 C.ar      1 <0>        -0.6823
      8 C8          0.7486   -1.7734    3.2525 C.ar      1 <0>        -0.0173
      9 C9          0.0787   -1.3120    2.1348 C.ar      1 <0>        -0.1375
     10 S1          2.9205   -2.0034    4.8898 S.o2      1 <0>         2.6926
     11 O1          2.2564   -3.1901    5.3020 O.2       1 <0>        -0.9536
     12 O2          4.3059   -1.9759    4.5748 O.2       1 <0>        -0.9607
     13 N1          2.6862   -0.8882    6.0914 N.pl3     1 <0>        -1.1079
     14 C10         1.3412   -0.6575    6.6245 C.3       1 <0>         0.1288
     15 C11         1.4402    0.1147    7.9416 C.3       1 <0>        -0.6121
     16 S2         -0.2251    0.4004    8.6017 S.o2      1 <0>         2.5270
     17 O3         -0.9360    1.3009    7.7633 O.2       1 <0>        -1.0238
     18 O4         -0.8102   -0.8307    9.0034 O.2       1 <0>        -1.0212
     19 N2          0.0135    1.2349   10.0120 N.2       1 <0>        -1.0981
     20 C12        -1.0813    1.6219   10.7882 C.ar      1 <0>         0.2792
     21 C13        -2.3706    1.3025   10.3816 C.ar      1 <0>        -0.2590
     22 C14        -3.4509    1.6862   11.1517 C.ar      1 <0>        -0.0715
     23 C15        -3.2502    2.3880   12.3263 C.ar      1 <0>        -0.2293
     24 C16        -1.9680    2.7076   12.7340 C.ar      1 <0>        -0.0835
     25 C17        -0.8830    2.3220   11.9715 C.ar      1 <0>        -0.1867
     26 H1          1.0039    1.9031    0.0027 H         1 <0>         0.0586
     27 H2         -0.5459    1.8868   -0.8726 H         1 <0>         0.0615
     28 H3         -0.5289    1.8773    0.9072 H         1 <0>         0.0603
     29 H4         -1.0205   -0.3814    0.0098 H         1 <0>         0.0834
     30 H5          1.7408   -0.1202   -1.2645 H         1 <0>         0.0585
     31 H6          0.7330   -1.5874   -1.2628 H         1 <0>         0.0572
     32 H7          0.1910   -0.1364   -2.1398 H         1 <0>         0.0614
     33 H8          2.5584    0.4872    0.7235 H         1 <0>         0.1314
     34 H9          3.7495   -0.3288    2.7182 H         1 <0>         0.1401
     35 H10         0.2403   -2.4088    3.9627 H         1 <0>         0.1429
     36 H11        -0.9532   -1.5860    1.9723 H         1 <0>         0.1338
     37 H12         3.4394   -0.3878    6.4423 H         1 <0>         0.4218
     38 H13         0.7603   -0.0784    5.9066 H         1 <0>         0.0758
     39 H14         0.8510   -1.6149    6.8005 H         1 <0>         0.0912
     40 H15         2.0212   -0.4644    8.6595 H         1 <0>         0.1321
     41 H16         1.9305    1.0721    7.7656 H         1 <0>         0.1299
     42 H17        -2.5281    0.7550    9.4641 H         1 <0>         0.0991
     43 H18        -4.4535    1.4382   10.8362 H         1 <0>         0.0994
     44 H19        -4.0967    2.6876   12.9263 H         1 <0>         0.0988
     45 H20        -1.8147    3.2558   13.6518 H         1 <0>         0.1025
     46 H21         0.1183    2.5680   12.2928 H         1 <0>         0.1094
@<TRIPOS>BOND
     1    1    2 1
     2    1   26 1
     3    1   27 1
     4    1   28 1
     5    2    3 1
     6    2    4 1
     7    2   29 1
     8    3   30 1
     9    3   31 1
    10    3   32 1
    11    4    9 ar
    12    4    5 ar
    13    5    6 ar
    14    5   33 1
    15    6    7 ar
    16    6   34 1
    17    7    8 ar
    18    7   10 1
    19    8    9 ar
    20    8   35 1
    21    9   36 1
    22   10   11 2
    23   10   12 2
    24   10   13 1
    25   13   14 1
    26   13   37 1
    27   14   15 1
    28   14   38 1
    29   14   39 1
    30   15   16 1
    31   15   40 1
    32   15   41 1
    33   16   17 2
    34   16   18 2
    35   16   19 1
    36   19   20 1
    37   20   25 ar
    38   20   21 ar
    39   21   22 ar
    40   21   42 1
    41   22   23 ar
    42   22   43 1
    43   23   24 ar
    44   23   44 1
    45   24   25 ar
    46   24   45 1
    47   25   46 1
@<TRIPOS>MOLECULE
ZINC64682197
   41    41     0     0     0
SMALL
USER_CHARGES

@<TRIPOS>ATOM
      1 C1          0.0131    1.4490    0.0806 C.3       1 <0>         0.0313
      2 O1          0.0284    0.0202    0.0620 O.3       1 <0>        -0.3811
      3 C2         -1.2707   -0.5750    0.0652 C.3       1 <0>         0.0643
      4 C3         -1.1336   -2.0987    0.0443 C.3       1 <0>         0.0623
      5 O2         -0.5136   -2.5378    1.2546 O.3       1 <0>        -0.3823
      6 C4         -0.3375   -3.9535    1.3370 C.3       1 <0>         0.0784
      7 C5          0.3313   -4.3077    2.6668 C.3       1 <0>        -0.1233
      8 C6          0.5169   -5.8007    2.7537 C.2       1 <0>         0.3550
      9 O3         -0.4853   -6.5777    3.1986 O.3       1 <0>        -0.6062
     10 C7          1.7016   -6.3632    2.3811 C.2       1 <0>        -0.4159
     11 C8          2.7696   -5.5353    1.9071 C.1       1 <0>         0.2910
     12 N1          3.6168   -4.8785    1.5311 N.1       1 <0>        -0.5217
     13 C9          1.8827   -7.8194    2.4659 C.2       1 <0>         0.5903
     14 O4          0.9753   -8.5228    2.8686 O.2       1 <0>        -0.5144
     15 N2          3.0538   -8.3754    2.0976 N.am      1 <0>        -0.6907
     16 C10         3.2678   -9.7447    2.2861 C.ar      1 <0>         0.2342
     17 C11         2.5646  -10.4303    3.2684 C.ar      1 <0>        -0.1405
     18 C12         2.7782  -11.7821    3.4520 C.ar      1 <0>        -0.0658
     19 C13         3.6912  -12.4535    2.6591 C.ar      1 <0>        -0.1621
     20 C14         4.3928  -11.7740    1.6805 C.ar      1 <0>        -0.0531
     21 C15         4.1796  -10.4229    1.4879 C.ar      1 <0>        -0.2424
     22 C16         4.9402   -9.6843    0.4169 C.3       1 <0>         0.5092
     23 F1          5.7910  -10.5736   -0.2483 F         1 <0>        -0.1798
     24 F2          4.0382   -9.1298   -0.4975 F         1 <0>        -0.1736
     25 F3          5.6975   -8.6639    1.0021 F         1 <0>        -0.1798
     26 H1          1.0368    1.8234    0.0769 H         1 <0>         0.0846
     27 H2         -0.5121    1.8183   -0.8003 H         1 <0>         0.0375
     28 H3         -0.4971    1.7952    0.9795 H         1 <0>         0.0402
     29 H4         -1.8075   -0.2708    0.9637 H         1 <0>         0.0574
     30 H5         -1.8225   -0.2478   -0.8160 H         1 <0>         0.0609
     31 H6         -2.1214   -2.5513   -0.0429 H         1 <0>         0.0635
     32 H7         -0.5210   -2.3968   -0.8066 H         1 <0>         0.0558
     33 H8         -1.3088   -4.4446    1.2767 H         1 <0>         0.0547
     34 H9          0.2915   -4.2901    0.5129 H         1 <0>         0.0498
     35 H10         1.3025   -3.8167    2.7271 H         1 <0>         0.0745
     36 H11        -0.2978   -3.9712    3.4908 H         1 <0>         0.0817
     37 H12         3.7483   -7.8260    1.7017 H         1 <0>         0.4028
     38 H13         1.8518   -9.9066    3.8881 H         1 <0>         0.1623
     39 H14         2.2320  -12.3157    4.2158 H         1 <0>         0.1302
     40 H15         3.8567  -13.5107    2.8050 H         1 <0>         0.1276
     41 H16         5.1053  -12.3010    1.0633 H         1 <0>         0.1335
@<TRIPOS>BOND
     1    1    2 1
     2    1   26 1
     3    1   27 1
     4    1   28 1
     5    2    3 1
     6    3    4 1
     7    3   29 1
     8    3   30 1
     9    4    5 1
    10    4   31 1
    11    4   32 1
    12    5    6 1
    13    6    7 1
    14    6   33 1
    15    6   34 1
    16    7    8 1
    17    7   35 1
    18    7   36 1
    19    8    9 1
    20    8   10 2
    21   10   11 1
    22   10   13 1
    23   11   12 3
    24   13   14 2
    25   13   15 am
    26   15   16 1
    27   15   37 1
    28   16   21 ar
    29   16   17 ar
    30   17   18 ar
    31   17   38 1
    32   18   19 ar
    33   18   39 1
    34   19   20 ar
    35   19   40 1
    36   20   21 ar
    37   20   41 1
    38   21   22 1
    39   22   23 1
    40   22   24 1
    41   22   25 1
@<TRIPOS>MOLECULE
ZINC02128620
   57    59     0     0     0
SMALL
USER_CHARGES
(2S)-2-[[2-[3-(3,5-dimethyl-7-oxo-furo[3,2-g]chromen-6-yl)propanoylamino]acetyl]amino]-3-methyl-butanoic acid
@<TRIPOS>ATOM
      1 C1         13.0690   -6.2041    2.0366 C.3       1 <0>        -0.0854
      2 C2         12.8706   -5.4945    3.3511 C.2       1 <0>        -0.1682
      3 C3         13.4085   -5.8240    4.5319 C.2       1 <0>         0.0062
      4 O1         13.0070   -4.9628    5.4838 O.3       1 <0>        -0.1881
      5 C4         12.1843   -4.0253    4.9705 C.ar      1 <0>         0.1069
      6 C5         12.0471   -4.3018    3.5948 C.ar      1 <0>        -0.1473
      7 C6         11.2511   -3.4975    2.7914 C.ar      1 <0>        -0.0025
      8 C7         10.5864   -2.4103    3.3588 C.ar      1 <0>        -0.1555
      9 C8          9.7376   -1.5393    2.5398 C.2       1 <0>         0.0311
     10 C9          9.1156   -0.4961    3.1454 C.2       1 <0>        -0.2170
     11 C10         9.3013   -0.2740    4.5264 C.2       1 <0>         0.5178
     12 O2          8.7410    0.6689    5.0556 O.2       1 <0>        -0.4487
     13 O3         10.0747   -1.0768    5.2731 O.3       1 <0>        -0.2698
     14 C11        10.7238   -2.1339    4.7349 C.ar      1 <0>         0.1710
     15 C12        11.5205   -2.9422    5.5271 C.ar      1 <0>        -0.1294
     16 C13         8.2337    0.4263    2.3438 C.3       1 <0>        -0.0470
     17 C14         6.7984   -0.1033    2.3546 C.3       1 <0>        -0.1358
     18 C15         5.9165    0.8191    1.5530 C.2       1 <0>         0.5163
     19 O4          6.3895    1.8032    1.0250 O.2       1 <0>        -0.5421
     20 N1          4.6022    0.5505    1.4229 N.am      1 <0>        -0.7146
     21 C16         3.7450    1.4472    0.6436 C.3       1 <0>         0.0987
     22 C17         2.3312    0.9256    0.6543 C.2       1 <0>         0.5020
     23 O5          2.0658   -0.0948    1.2538 O.2       1 <0>        -0.5496
     24 N2          1.3617    1.5929   -0.0024 N.am      1 <0>        -0.6920
     25 C18        -0.0127    1.0858    0.0080 C.3       1 <0>         0.1040
     26 H1          0.0021   -0.0041    0.0020 H         1 <0>         0.0893
     27 C19        -0.7288    1.5792    1.2668 C.3       1 <0>        -0.0853
     28 C20        -2.1642    1.0497    1.2777 C.3       1 <0>        -0.1543
     29 C21         0.0111    1.0724    2.5063 C.3       1 <0>        -0.1332
     30 C22        -0.7416    1.5850   -1.2129 C.2       1 <0>         0.4640
     31 O6         -0.1715    2.2919   -2.0099 O.co2     1 <0>        -0.6343
     32 C23         9.5611   -1.7953    1.0652 C.3       1 <0>        -0.1330
     33 H2         13.9264   -5.7751    1.5179 H         1 <0>         0.0732
     34 H3         13.2478   -7.2638    2.2191 H         1 <0>         0.0721
     35 H4         12.1765   -6.0868    1.4219 H         1 <0>         0.0706
     36 H5         14.0705   -6.6613    4.6964 H         1 <0>         0.2117
     37 H6         11.1477   -3.7110    1.7378 H         1 <0>         0.1470
     38 H7         11.6252   -2.7293    6.5808 H         1 <0>         0.1533
     39 H8          8.5958    0.4735    1.3168 H         1 <0>         0.0908
     40 H9          8.2564    1.4235    2.7833 H         1 <0>         0.0944
     41 H10         6.4363   -0.1505    3.3817 H         1 <0>         0.0985
     42 H11         6.7757   -1.1005    1.9152 H         1 <0>         0.0953
     43 H12         4.2239   -0.2366    1.8452 H         1 <0>         0.4122
     44 H13         4.1071    1.4944   -0.3834 H         1 <0>         0.0984
     45 H14         3.7677    2.4444    1.0831 H         1 <0>         0.0968
     46 H15         1.5740    2.4089   -0.4819 H         1 <0>         0.4072
     47 H16        -0.7436    2.6691    1.2728 H         1 <0>         0.0592
     48 H17        -2.1494   -0.0402    1.2717 H         1 <0>         0.0438
     49 H18        -2.6744    1.4012    2.1745 H         1 <0>         0.0331
     50 H19        -2.6914    1.4107    0.3946 H         1 <0>         0.1047
     51 H20         1.0337    1.4497    2.4986 H         1 <0>         0.0440
     52 H21        -0.4990    1.4239    3.4031 H         1 <0>         0.0387
     53 H22         0.0259   -0.0175    2.5003 H         1 <0>         0.0587
     54 H23        10.3286   -1.2573    0.5086 H         1 <0>         0.0938
     55 H24         9.6513   -2.8636    0.8685 H         1 <0>         0.0808
     56 H25         8.5759   -1.4501    0.7519 H         1 <0>         0.0894
     57 O7         -2.0241    1.2444   -1.4149 O.co2     1 <0>        -0.7422
@<TRIPOS>BOND
     1    1    2 1
     2    1   33 1
     3    1   34 1
     4    1   35 1
     5    2    6 1
     6    2    3 2
     7    3    4 1
     8    3   36 1
     9    4    5 1
    10    5   15 ar
    11    5    6 ar
    12    6    7 ar
    13    7    8 ar
    14    7   37 1
    15    8   14 ar
    16    8    9 1
    17    9   10 2
    18    9   32 1
    19   10   11 1
    20   10   16 1
    21   11   12 2
    22   11   13 1
    23   13   14 1
    24   14   15 ar
    25   15   38 1
    26   16   17 1
    27   16   39 1
    28   16   40 1
    29   17   18 1
    30   17   41 1
    31   17   42 1
    32   18   19 2
    33   18   20 am
    34   20   21 1
    35   20   43 1
    36   21   22 1
    37   21   44 1
    38   21   45 1
    39   22   23 2
    40   22   24 am
    41   24   25 1
    42   24   46 1
    43   25   26 1
    44   25   27 1
    45   25   30 1
    46   27   28 1
    47   27   29 1
    48   27   47 1
    49   28   48 1
    50   28   49 1
    51   28   50 1
    52   29   51 1
    53   29   52 1
    54   29   53 1
    55   30   31 2
    56   30   57 1
    57   32   54 1
    58   32   55 1
    59   32   56 1
@<TRIPOS>MOLECULE
ZINC13273589
   49    50     0     0     0
SMALL
USER_CHARGES
2-[[2-[[5-(isobutylamino)-1,3,4-thiadiazol-2-yl]sulfanyl]acetyl]amino]-4,5-dimethoxy-benzoic acid
@<TRIPOS>ATOM
      1 C1          7.0205   14.0166   -2.0288 C.3       1 <0>        -0.1512
      2 C2          6.5102   13.7903   -0.6043 C.3       1 <0>        -0.1078
      3 C3          5.4637   14.8529   -0.2626 C.3       1 <0>        -0.1454
      4 C4          5.8778   12.4008   -0.5038 C.3       1 <0>         0.1345
      5 N1          6.9070   11.3795   -0.7136 N.pl3     1 <0>        -0.6725
      6 C5          6.5686   10.0321   -0.6684 C.2       1 <0>         0.3461
      7 N2          5.3941    9.4724   -0.4537 N.2       1 <0>        -0.3692
      8 N3          5.2791    8.1015   -0.4511 N.2       1 <0>        -0.2765
      9 C6          6.3446    7.3532   -0.6635 C.2       1 <0>         0.0349
     10 S1          7.6097    8.5959   -0.8783 S.3       1 <0>        -0.0155
     11 S2          6.4839    5.5975   -0.7139 S.3       1 <0>         0.1230
     12 C7          4.7948    5.0140   -0.4023 C.3       1 <0>        -0.1514
     13 C8          4.7727    3.5073   -0.4189 C.2       1 <0>         0.5355
     14 O1          5.7958    2.8880   -0.6209 O.2       1 <0>        -0.5291
     15 N4          3.6162    2.8479   -0.2091 N.am      1 <0>        -0.6301
     16 C9          3.6144    1.4572   -0.1113 C.ar      1 <0>         0.1716
     17 C10         4.3748    0.6979   -0.9872 C.ar      1 <0>        -0.1818
     18 C11         4.3678   -0.6843   -0.8942 C.ar      1 <0>         0.1112
     19 C12         3.6016   -1.3198    0.0847 C.ar      1 <0>         0.0721
     20 C13         2.8464   -0.5751    0.9658 C.ar      1 <0>        -0.1135
     21 C14         2.8475    0.8221    0.8784 C.ar      1 <0>        -0.1293
     22 C15         2.0435    1.6214    1.8161 C.2       1 <0>         0.4977
     23 O2          2.0734    2.8352    1.7605 O.co2     1 <0>        -0.6311
     24 O3          3.6004   -2.6777    0.1697 O.3       1 <0>        -0.3123
     25 C16         2.7948   -3.2628    1.1947 C.3       1 <0>         0.0262
     26 O4          5.1094   -1.4240   -1.7582 O.3       1 <0>        -0.3070
     27 C17         5.8702   -0.7108   -2.7353 C.3       1 <0>         0.0274
     28 H1          6.1880   13.9449   -2.7287 H         1 <0>         0.0598
     29 H2          7.4711   15.0066   -2.1004 H         1 <0>         0.0600
     30 H3          7.7661   13.2597   -2.2722 H         1 <0>         0.0539
     31 H4          7.3428   13.8621    0.0956 H         1 <0>         0.0791
     32 H5          5.1001   14.6916    0.7522 H         1 <0>         0.0604
     33 H6          5.9142   15.8428   -0.3342 H         1 <0>         0.0622
     34 H7          4.6312   14.7811   -0.9625 H         1 <0>         0.0603
     35 H8          5.1037   12.2980   -1.2643 H         1 <0>         0.0731
     36 H9          5.4357   12.2734    0.4843 H         1 <0>         0.0731
     37 H10         7.8247   11.6436   -0.8841 H         1 <0>         0.4184
     38 H11         4.1299    5.3957   -1.1771 H         1 <0>         0.1279
     39 H12         4.4608    5.3717    0.5716 H         1 <0>         0.1348
     40 H13         2.7850    3.3410   -0.1261 H         1 <0>         0.4261
     41 H14         4.9699    1.1843   -1.7459 H         1 <0>         0.1443
     42 H15         2.2551   -1.0690    1.7226 H         1 <0>         0.1496
     43 H16         2.8841   -4.3483    1.1519 H         1 <0>         0.0942
     44 H17         3.1323   -2.9087    2.1687 H         1 <0>         0.0552
     45 H18         1.7533   -2.9778    1.0453 H         1 <0>         0.0554
     46 H19         6.4148   -1.4190   -3.3596 H         1 <0>         0.0945
     47 H20         5.1988   -0.1192   -3.3577 H         1 <0>         0.0507
     48 H21         6.5773   -0.0500   -2.2337 H         1 <0>         0.0575
     49 O5          1.2738    1.0076    2.7368 O.co2     1 <0>        -0.7472
@<TRIPOS>BOND
     1    1    2 1
     2    1   28 1
     3    1   29 1
     4    1   30 1
     5    2    3 1
     6    2    4 1
     7    2   31 1
     8    3   32 1
     9    3   33 1
    10    3   34 1
    11    4    5 1
    12    4   35 1
    13    4   36 1
    14    5    6 1
    15    5   37 1
    16    6   10 1
    17    6    7 2
    18    7    8 1
    19    8    9 2
    20    9   10 1
    21    9   11 1
    22   11   12 1
    23   12   13 1
    24   12   38 1
    25   12   39 1
    26   13   14 2
    27   13   15 am
    28   15   16 1
    29   15   40 1
    30   16   21 ar
    31   16   17 ar
    32   17   18 ar
    33   17   41 1
    34   18   19 ar
    35   18   26 1
    36   19   20 ar
    37   19   24 1
    38   20   21 ar
    39   20   42 1
    40   21   22 1
    41   22   23 2
    42   22   49 1
    43   24   25 1
    44   25   43 1
    45   25   44 1
    46   25   45 1
    47   26   27 1
    48   27   46 1
    49   27   47 1
    50   27   48 1
@<TRIPOS>MOLECULE
ZINC09891505
   47    48     0     0     0
SMALL
USER_CHARGES
N-[2-[[2-nitro-4-(trifluoromethyl)phenyl]amino]ethyl]-2-(3-propyl-5-thioxo-1H-1,2,4-triazol-4-yl)acetamide
@<TRIPOS>ATOM
      1 C1         -0.1177    0.0976   -6.1769 C.3       1 <0>        -0.1480
      2 C2         -0.7577   -0.2691   -4.8364 C.3       1 <0>        -0.1204
      3 C3         -1.9269    0.6765   -4.5539 C.3       1 <0>        -0.0259
      4 C4         -2.5573    0.3153   -3.2336 C.2       1 <0>         0.1782
      5 N1         -3.5243   -0.5284   -3.0665 N.2       1 <0>        -0.3285
      6 N2         -3.8275   -0.5793   -1.6989 N.2       1 <0>        -0.3846
      7 C5         -2.9886    0.2704   -1.0702 C.2       1 <0>         0.3961
      8 S1         -2.9376    0.5851    0.6119 S.3       1 <0>        -0.7836
      9 N3         -2.1977    0.8254   -2.0104 N.pl3     1 <0>        -0.4896
     10 C6         -1.1395    1.8093   -1.7690 C.3       1 <0>         0.0988
     11 C7          0.1631    1.0946   -1.5174 C.2       1 <0>         0.5102
     12 O1          0.2036   -0.1174   -1.5377 O.2       1 <0>        -0.5080
     13 N4          1.2843    1.8023   -1.2753 N.am      1 <0>        -0.7438
     14 C8          2.5518    1.1077   -1.0367 C.3       1 <0>         0.1144
     15 C9          3.6581    2.1354   -0.7901 C.3       1 <0>         0.1052
     16 N5          4.9257    1.4407   -0.5514 N.pl3     1 <0>        -0.7219
     17 C10         6.0876    2.1742   -0.3006 C.ar      1 <0>         0.3135
     18 C11         6.0705    3.5600   -0.3970 C.ar      1 <0>        -0.1980
     19 C12         7.2209    4.2821   -0.1484 C.ar      1 <0>         0.0203
     20 C13         8.3893    3.6272    0.1963 C.ar      1 <0>        -0.2486
     21 C14         8.4098    2.2481    0.2932 C.ar      1 <0>         0.0424
     22 C15         7.2612    1.5201    0.0514 C.ar      1 <0>        -0.1252
     23 N6          7.2825    0.0443    0.1612 N.pl3     1 <0>         0.0370
     24 O2          6.3213   -0.5461    0.6206 O.2       1 <0>        -0.1713
     25 O3          8.2612   -0.5798   -0.2078 O.3       1 <0>        -0.1407
     26 C16         9.6428    4.4186    0.4674 C.3       1 <0>         0.5201
     27 F1          9.3765    5.7828    0.3086 F         1 <0>        -0.1742
     28 F2         10.0731    4.1767    1.7765 F         1 <0>        -0.1751
     29 F3         10.6426    4.0309   -0.4312 F         1 <0>        -0.1741
     30 H1          0.7229   -0.5822   -6.3800 H         1 <0>         0.0529
     31 H2          0.2500    1.1335   -6.1364 H         1 <0>         0.0504
     32 H3         -0.8659    0.0051   -6.9779 H         1 <0>         0.0558
     33 H4         -1.1254   -1.3050   -4.8769 H         1 <0>         0.0686
     34 H5         -0.0095   -0.1766   -4.0354 H         1 <0>         0.0640
     35 H6         -1.5591    1.7124   -4.5135 H         1 <0>         0.0684
     36 H7         -2.6751    0.5841   -5.3550 H         1 <0>         0.0894
     37 H8         -1.0364    2.4604   -2.6496 H         1 <0>         0.1055
     38 H9         -1.3989    2.4188   -0.8908 H         1 <0>         0.1286
     39 H10         1.2476    2.9015   -1.2569 H         1 <0>         0.4201
     40 H11         2.4530    0.4568   -0.1555 H         1 <0>         0.0783
     41 H12         2.8071    0.4981   -1.9160 H         1 <0>         0.0714
     42 H13         3.7570    2.7863   -1.6713 H         1 <0>         0.0788
     43 H14         3.4029    2.7451    0.0892 H         1 <0>         0.0836
     44 H15         4.9624    0.3415   -0.5697 H         1 <0>         0.4421
     45 H16         5.1583    4.0721   -0.6657 H         1 <0>         0.1565
     46 H17         7.2083    5.3594   -0.2228 H         1 <0>         0.1555
     47 H18         9.3238    1.7398    0.5629 H         1 <0>         0.1556
@<TRIPOS>BOND
     1    1    2 1
     2    1   30 1
     3    1   31 1
     4    1   32 1
     5    2    3 1
     6    2   33 1
     7    2   34 1
     8    3    4 1
     9    3   35 1
    10    3   36 1
    11    4    9 1
    12    4    5 2
    13    5    6 1
    14    6    7 2
    15    7    8 1
    16    7    9 1
    17    9   10 1
    18   10   11 1
    19   10   37 1
    20   10   38 1
    21   11   12 2
    22   11   13 am
    23   13   14 1
    24   13   39 1
    25   14   15 1
    26   14   40 1
    27   14   41 1
    28   15   16 1
    29   15   42 1
    30   15   43 1
    31   16   17 1
    32   16   44 1
    33   17   22 ar
    34   17   18 ar
    35   18   19 ar
    36   18   45 1
    37   19   20 ar
    38   19   46 1
    39   20   21 ar
    40   20   26 1
    41   21   22 ar
    42   21   47 1
    43   22   23 1
    44   23   24 2
    45   23   25 1
    46   26   27 1
    47   26   28 1
    48   26   29 1
@<TRIPOS>MOLECULE
ZINC40007999
   55    57     0     0     0
SMALL
USER_CHARGES

@<TRIPOS>ATOM
      1 C1         -0.7440    2.2938   -0.0154 C.3       1 <0>        -0.1549
      2 C2         -0.6289    0.7843    0.2056 C.3       1 <0>        -0.1301
      3 C3          0.2831    0.1803   -0.8642 C.3       1 <0>         0.1506
      4 H1          1.2437    0.6954   -0.8558 H         1 <0>         0.1075
      5 C4          0.4986   -1.3058   -0.5710 C.3       1 <0>         0.0657
      6 O1         -0.7680   -1.9593   -0.4669 O.3       1 <0>        -0.5586
      7 N1         -0.3411    0.3328   -2.1808 N.pl3     1 <0>        -0.6674
      8 C5          0.4405    0.3578   -3.3151 C.2       1 <0>         0.5130
      9 C6         -0.1567    0.5107   -4.5886 C.2       1 <0>        -0.4127
     10 C7          0.6844    0.5316   -5.7267 C.2       1 <0>         0.5457
     11 O2          0.2131    0.6616   -6.8433 O.2       1 <0>        -0.5133
     12 N2          2.0180    0.4054   -5.5548 N.am      1 <0>        -0.4360
     13 C8          2.8357    0.4245   -6.6454 C.2       1 <0>         0.1094
     14 C9          4.1750    0.3006   -6.5085 C.2       1 <0>        -0.1731
     15 C10         4.7405    0.1502   -5.2350 C.2       1 <0>        -0.0232
     16 C11         3.9313    0.1299   -4.1379 C.2       1 <0>        -0.1160
     17 C12         2.5403    0.2606   -4.2996 C.2       1 <0>         0.4432
     18 N3          1.7574    0.2443   -3.2205 N.2       1 <0>        -0.5769
     19 C13         4.5231   -0.0321   -2.7615 C.3       1 <0>        -0.0905
     20 C14        -1.5590    0.6391   -4.7210 C.2       1 <0>         0.1683
     21 C15        -2.3831   -0.3254   -4.2174 C.2       1 <0>        -0.2798
     22 C16        -3.8047   -0.3503   -4.1366 C.2       1 <0>         0.5407
     23 O3         -4.4722    0.5805   -4.5523 O.2       1 <0>        -0.4634
     24 N4         -4.3794   -1.4118   -3.5985 N.am      1 <0>        -0.5174
     25 C17        -3.6388   -2.4445   -3.1378 C.2       1 <0>         0.2912
     26 S1         -4.1646   -3.9028   -2.4113 S.2       1 <0>        -0.3524
     27 S2         -1.9721   -1.9043   -3.4870 S.3       1 <0>         0.0670
     28 C18        -5.8399   -1.4699   -3.4994 C.3       1 <0>         0.0816
     29 C19        -6.4117   -2.1143   -4.7637 C.3       1 <0>        -0.1010
     30 C20        -7.9370   -2.1749   -4.6602 C.3       1 <0>        -0.1766
     31 C21        -8.5002   -2.8096   -5.9056 C.2       1 <0>         0.4922
     32 O4         -7.7510   -3.1793   -6.7937 O.co2     1 <0>        -0.6970
     33 O5         -9.7050   -2.9535   -6.0251 O.co2     1 <0>        -0.7055
     34 H2          0.2448    2.7474    0.0519 H         1 <0>         0.0552
     35 H3         -1.1653    2.4855   -1.0023 H         1 <0>         0.0524
     36 H4         -1.3937    2.7241    0.7468 H         1 <0>         0.0588
     37 H5         -0.2076    0.5926    1.1925 H         1 <0>         0.0815
     38 H6         -1.6177    0.3307    0.1383 H         1 <0>         0.0788
     39 H7          1.0743   -1.7559   -1.3797 H         1 <0>         0.0514
     40 H8          1.0425   -1.4158    0.3671 H         1 <0>         0.0528
     41 H9         -0.7078   -2.9064   -0.2814 H         1 <0>         0.3809
     42 H10        -1.3048    0.4162   -2.2539 H         1 <0>         0.4167
     43 H11         2.4085    0.5396   -7.6306 H         1 <0>         0.1846
     44 H12         4.8101    0.3172   -7.3819 H         1 <0>         0.1617
     45 H13         5.8101    0.0506   -5.1234 H         1 <0>         0.1540
     46 H14         5.6069   -0.1177   -2.8398 H         1 <0>         0.0710
     47 H15         4.2703    0.8361   -2.1529 H         1 <0>         0.0784
     48 H16         4.1202   -0.9317   -2.2963 H         1 <0>         0.0788
     49 H17        -1.9776    1.5002   -5.2205 H         1 <0>         0.1508
     50 H18        -6.1218   -2.0635   -2.6297 H         1 <0>         0.1068
     51 H19        -6.2374   -0.4603   -3.3945 H         1 <0>         0.0982
     52 H20        -6.1299   -1.5207   -5.6334 H         1 <0>         0.0645
     53 H21        -6.0142   -3.1238   -4.8686 H         1 <0>         0.0705
     54 H22        -8.2188   -2.7685   -3.7906 H         1 <0>         0.0627
     55 H23        -8.3344   -1.1654   -4.5554 H         1 <0>         0.0590
@<TRIPOS>BOND
     1    1    2 1
     2    1   34 1
     3    1   35 1
     4    1   36 1
     5    2    3 1
     6    2   37 1
     7    2   38 1
     8    3    4 1
     9    3    5 1
    10    3    7 1
    11    5    6 1
    12    5   39 1
    13    5   40 1
    14    6   41 1
    15    7    8 1
    16    7   42 1
    17    8   18 1
    18    8    9 2
    19    9   10 1
    20    9   20 1
    21   10   11 2
    22   10   12 am
    23   12   17 1
    24   12   13 1
    25   13   14 2
    26   13   43 1
    27   14   15 1
    28   14   44 1
    29   15   16 2
    30   15   45 1
    31   16   17 1
    32   16   19 1
    33   17   18 2
    34   19   46 1
    35   19   47 1
    36   19   48 1
    37   20   21 2
    38   20   49 1
    39   21   27 1
    40   21   22 1
    41   22   23 2
    42   22   24 am
    43   24   25 1
    44   24   28 1
    45   25   26 2
    46   25   27 1
    47   28   29 1
    48   28   50 1
    49   28   51 1
    50   29   30 1
    51   29   52 1
    52   29   53 1
    53   30   31 1
    54   30   54 1
    55   30   55 1
    56   31   32 2
    57   31   33 1
@<TRIPOS>MOLECULE
ZINC03268801
   62    64     0     0     0
SMALL
USER_CHARGES

@<TRIPOS>ATOM
      1 C1         -0.1935   -4.4034   -1.9426 C.3       1 <0>        -0.1506
      2 C2          1.1189   -3.9865   -1.2756 C.3       1 <0>         0.0572
      3 O1          0.8760   -3.6682    0.0961 O.3       1 <0>        -0.3479
      4 C3          1.9366   -3.2794    0.8311 C.2       1 <0>         0.5544
      5 O2          3.0377   -3.2126    0.3210 O.2       1 <0>        -0.5039
      6 C4          1.7615   -2.9356    2.2519 C.2       1 <0>        -0.1987
      7 C5          1.8653   -3.8208    3.3505 C.2       1 <0>        -0.0463
      8 C6          1.6314   -3.0884    4.4761 C.2       1 <0>         0.0866
      9 N1          1.3881   -1.7860    4.1030 N.pl3     1 <0>        -0.5114
     10 H1          1.1927   -1.0551    4.7100 H         1 <0>         0.4171
     11 C7          1.4702   -1.6856    2.7654 C.2       1 <0>         0.0695
     12 C8          1.2753   -0.4256    1.9619 C.3       1 <0>        -0.0856
     13 C9          1.6374   -3.6023    5.8542 C.2       1 <0>         0.3838
     14 C10         2.8472   -4.0559    6.4285 C.2       1 <0>        -0.3851
     15 C11         2.7796   -4.5722    7.8541 C.3       1 <0>         0.2540
     16 H2          3.4609   -3.9771    8.4621 H         1 <0>         0.0669
     17 N2          1.4536   -4.5478    8.4962 N.pl3     1 <0>        -0.6894
     18 C12         0.4054   -4.0787    7.7938 C.2       1 <0>         0.5707
     19 S1         -1.1326   -4.0521    8.5452 S.2       1 <0>        -0.7155
     20 N3          0.5078   -3.6317    6.5513 N.2       1 <0>        -0.6054
     21 C13         3.2751   -5.9954    7.8599 C.ar      1 <0>        -0.0843
     22 C14         4.5207   -6.2900    8.3825 C.ar      1 <0>        -0.0810
     23 C15         4.9797   -7.5940    8.3902 C.ar      1 <0>        -0.1759
     24 C16         4.1907   -8.6092    7.8737 C.ar      1 <0>         0.0930
     25 C17         2.9368   -8.3128    7.3480 C.ar      1 <0>         0.0948
     26 C18         2.4808   -7.0044    7.3478 C.ar      1 <0>        -0.1423
     27 O3          2.1588   -9.3058    6.8400 O.3       1 <0>        -0.3102
     28 C19         0.8397   -8.9475    6.4232 C.3       1 <0>         0.0271
     29 O4          4.6410   -9.8925    7.8800 O.3       1 <0>        -0.3098
     30 C20         5.9376  -10.1223    8.4350 C.3       1 <0>         0.0288
     31 C21         4.0174   -4.0309    5.7354 C.2       1 <0>         0.4841
     32 O5          4.0685   -3.4500    4.5187 O.3       1 <0>        -0.6019
     33 O6          5.1269   -4.5872    6.2646 O.3       1 <0>        -0.3309
     34 C22         6.3444   -4.4278    5.5335 C.3       1 <0>         0.0665
     35 C23         7.4582   -5.2225    6.2182 C.3       1 <0>        -0.1484
     36 C24         2.1754   -5.2942    3.2882 C.3       1 <0>        -0.0753
     37 H3         -0.9088   -3.5833   -1.8811 H         1 <0>         0.0656
     38 H4         -0.0082   -4.6462   -2.9889 H         1 <0>         0.0750
     39 H5         -0.5983   -5.2777   -1.4329 H         1 <0>         0.0664
     40 H6          1.8343   -4.8066   -1.3371 H         1 <0>         0.0641
     41 H7          1.5238   -3.1122   -1.7853 H         1 <0>         0.0636
     42 H8          0.2237   -0.3251    1.6933 H         1 <0>         0.0764
     43 H9          1.5824    0.4352    2.5558 H         1 <0>         0.0689
     44 H10         1.8786   -0.4757    1.0556 H         1 <0>         0.0755
     45 H11         1.3384   -4.8634    9.4062 H         1 <0>         0.4163
     46 H12         5.1366   -5.4996    8.7854 H         1 <0>         0.1243
     47 H13         5.9534   -7.8213    8.7984 H         1 <0>         0.1298
     48 H14         1.5064   -6.7721    6.9439 H         1 <0>         0.1276
     49 H15         0.2980   -9.8439    6.1213 H         1 <0>         0.0978
     50 H16         0.3155   -8.4671    7.2494 H         1 <0>         0.0557
     51 H17         0.8995   -8.2581    5.5810 H         1 <0>         0.0538
     52 H18         5.9487   -9.8028    9.4770 H         1 <0>         0.0517
     53 H19         6.1740  -11.1848    8.3781 H         1 <0>         0.0952
     54 H20         6.6792   -9.5545    7.8730 H         1 <0>         0.0521
     55 H21         6.2083   -4.7953    4.5164 H         1 <0>         0.0628
     56 H22         6.6157   -3.3725    5.5053 H         1 <0>         0.0563
     57 H23         8.4048   -5.0306    5.7130 H         1 <0>         0.0694
     58 H24         7.5345   -4.9163    7.2615 H         1 <0>         0.0612
     59 H25         7.2287   -6.2869    6.1679 H         1 <0>         0.0606
     60 H26         3.2538   -5.4414    3.3464 H         1 <0>         0.0694
     61 H27         1.6938   -5.8025    4.1235 H         1 <0>         0.0548
     62 H28         1.8028   -5.7045    2.3496 H         1 <0>         0.0509
@<TRIPOS>BOND
     1    1    2 1
     2    1   37 1
     3    1   38 1
     4    1   39 1
     5    2    3 1
     6    2   40 1
     7    2   41 1
     8    3    4 1
     9    4    5 2
    10    4    6 1
    11    6   11 2
    12    6    7 1
    13    7    8 2
    14    7   36 1
    15    8    9 1
    16    8   13 1
    17    9   10 1
    18    9   11 1
    19   11   12 1
    20   12   42 1
    21   12   43 1
    22   12   44 1
    23   13   20 2
    24   13   14 1
    25   14   15 1
    26   14   31 2
    27   15   16 1
    28   15   17 1
    29   15   21 1
    30   17   18 1
    31   17   45 1
    32   18   19 2
    33   18   20 1
    34   21   26 ar
    35   21   22 ar
    36   22   23 ar
    37   22   46 1
    38   23   24 ar
    39   23   47 1
    40   24   25 ar
    41   24   29 1
    42   25   26 ar
    43   25   27 1
    44   26   48 1
    45   27   28 1
    46   28   49 1
    47   28   50 1
    48   28   51 1
    49   29   30 1
    50   30   52 1
    51   30   53 1
    52   30   54 1
    53   31   32 1
    54   31   33 1
    55   33   34 1
    56   34   35 1
    57   34   55 1
    58   34   56 1
    59   35   57 1
    60   35   58 1
    61   35   59 1
    62   36   60 1
    63   36   61 1
    64   36   62 1
@<TRIPOS>MOLECULE
ZINC13253855
   46    47     0     0     0
SMALL
USER_CHARGES
(1S,6R)-6-[[4-(isopropylsulfamoyl)phenyl]carbamoyl]cyclohex-3-ene-1-carboxylic acid
@<TRIPOS>ATOM
      1 C1          2.3018   -7.9022    1.9755 C.3       1 <0>        -0.1728
      2 C2          2.6877   -6.6552    1.1773 C.3       1 <0>         0.1457
      3 C3          4.1222   -6.2514    1.5241 C.3       1 <0>        -0.1608
      4 N1          2.5947   -6.9446   -0.2558 N.pl3     1 <0>        -1.1143
      5 S1          1.2141   -6.5674   -1.0888 S.o2      1 <0>         2.6985
      6 O1          0.1284   -7.0806   -0.3292 O.2       1 <0>        -0.9623
      7 O2          1.4411   -6.9400   -2.4412 O.2       1 <0>        -0.9655
      8 C4          1.0571   -4.8125   -1.0695 C.ar      1 <0>        -0.7105
      9 C5          1.6273   -4.0577   -2.0781 C.ar      1 <0>         0.0023
     10 C6          1.5060   -2.6819   -2.0659 C.ar      1 <0>        -0.1476
     11 C7          0.8110   -2.0567   -1.0390 C.ar      1 <0>         0.2334
     12 C8          0.2445   -2.8172   -0.0244 C.ar      1 <0>        -0.1772
     13 C9          0.3644   -4.1930   -0.0455 C.ar      1 <0>        -0.0025
     14 N2          0.6868   -0.6631   -1.0234 N.am      1 <0>        -0.6532
     15 C10         0.6160    0.0202   -2.1830 C.2       1 <0>         0.5379
     16 O3          0.5739   -0.5776   -3.2375 O.2       1 <0>        -0.5211
     17 C11         0.5891    1.5269   -2.1693 C.3       1 <0>        -0.0876
     18 H1          0.2232    1.8780   -1.2045 H         1 <0>         0.0928
     19 C12        -0.3286    2.0350   -3.2834 C.3       1 <0>        -0.0699
     20 C13         0.2975    1.7836   -4.6238 C.2       1 <0>        -0.1570
     21 C14         1.5524    1.5191   -4.8000 C.2       1 <0>        -0.1306
     22 C15         2.5543    1.4165   -3.6875 C.3       1 <0>        -0.0707
     23 C16         2.0017    2.0701   -2.4188 C.3       1 <0>        -0.1176
     24 H2          1.9604    3.1512   -2.5514 H         1 <0>         0.0858
     25 C17         2.8883    1.7326   -1.2479 C.2       1 <0>         0.4675
     26 O4          2.4403    1.1202   -0.3076 O.co2     1 <0>        -0.6401
     27 H3          2.9797   -8.7182    1.7249 H         1 <0>         0.0597
     28 H4          2.3710   -7.6869    3.0418 H         1 <0>         0.0668
     29 H5          1.2799   -8.1899    1.7285 H         1 <0>         0.0703
     30 H6          2.0099   -5.8392    1.4280 H         1 <0>         0.0849
     31 H7          4.3971   -5.3631    0.9554 H         1 <0>         0.0658
     32 H8          4.1914   -6.0361    2.5903 H         1 <0>         0.0703
     33 H9          4.8000   -7.0674    1.2734 H         1 <0>         0.0614
     34 H10         3.3418   -7.3572   -0.7167 H         1 <0>         0.4168
     35 H11         2.1677   -4.5445   -2.8765 H         1 <0>         0.1381
     36 H12         1.9516   -2.0930   -2.8540 H         1 <0>         0.1447
     37 H13        -0.2932   -2.3337    0.7777 H         1 <0>         0.1342
     38 H14        -0.0797   -4.7853    0.7408 H         1 <0>         0.1387
     39 H15         0.6516   -0.1887   -0.1780 H         1 <0>         0.4257
     40 H16        -1.2854    1.5157   -3.2285 H         1 <0>         0.0673
     41 H17        -0.4909    3.1055   -3.1577 H         1 <0>         0.0777
     42 H18        -0.3382    1.8264   -5.4958 H         1 <0>         0.0960
     43 H19         1.8998    1.3622   -5.8105 H         1 <0>         0.0956
     44 H20         2.7679    0.3661   -3.4895 H         1 <0>         0.0671
     45 H21         3.4736    1.9230   -3.9813 H         1 <0>         0.0754
     46 O5          4.1758    2.1123   -1.2495 O.co2     1 <0>        -0.7591
@<TRIPOS>BOND
     1    1    2 1
     2    1   27 1
     3    1   28 1
     4    1   29 1
     5    2    3 1
     6    2    4 1
     7    2   30 1
     8    3   31 1
     9    3   32 1
    10    3   33 1
    11    4    5 1
    12    4   34 1
    13    5    6 2
    14    5    7 2
    15    5    8 1
    16    8   13 ar
    17    8    9 ar
    18    9   10 ar
    19    9   35 1
    20   10   11 ar
    21   10   36 1
    22   11   12 ar
    23   11   14 1
    24   12   13 ar
    25   12   37 1
    26   13   38 1
    27   14   15 am
    28   14   39 1
    29   15   16 2
    30   15   17 1
    31   17   18 1
    32   17   23 1
    33   17   19 1
    34   19   20 1
    35   19   40 1
    36   19   41 1
    37   20   21 2
    38   20   42 1
    39   21   22 1
    40   21   43 1
    41   22   23 1
    42   22   44 1
    43   22   45 1
    44   23   24 1
    45   23   25 1
    46   25   26 2
    47   25   46 1
@<TRIPOS>MOLECULE
ZINC39862207
   44    45     0     0     0
SMALL
USER_CHARGES

@<TRIPOS>ATOM
      1 C1          1.9873   -1.1100   -2.0633 C.2       1 <0>        -0.1679
      2 C2          0.7379   -0.7535   -1.8960 C.2       1 <0>        -0.1591
      3 C3         -0.3692   -1.7416   -2.1587 C.3       1 <0>         0.0831
      4 O1         -1.3243   -1.6800   -1.0976 O.3       1 <0>        -0.3079
      5 C4         -2.3931   -2.5131   -1.1811 C.ar      1 <0>         0.1502
      6 C5         -2.5145   -3.3773   -2.2632 C.ar      1 <0>        -0.2062
      7 C6         -3.5961   -4.2243   -2.3530 C.ar      1 <0>        -0.0476
      8 C7         -4.5749   -4.2144   -1.3515 C.ar      1 <0>        -0.1222
      9 C8         -4.4472   -3.3421   -0.2634 C.ar      1 <0>        -0.0417
     10 C9         -3.3589   -2.5029   -0.1814 C.ar      1 <0>        -0.1552
     11 C10        -5.7310   -5.1152   -1.4421 C.2       1 <0>         0.0582
     12 C11        -5.7691   -6.0763   -2.3998 C.2       1 <0>        -0.2173
     13 C12        -6.8731   -6.9783   -2.7847 C.2       1 <0>         0.5425
     14 O2         -7.9539   -6.9406   -2.2263 O.2       1 <0>        -0.4767
     15 N1         -6.6281   -7.8290   -3.7671 N.am      1 <0>        -0.4863
     16 C13        -5.4292   -7.8672   -4.3835 C.2       1 <0>         0.2761
     17 S1         -4.9237   -8.8858   -5.6633 S.2       1 <0>        -0.2776
     18 S2         -4.4993   -6.5927   -3.5472 S.3       1 <0>         0.0144
     19 C14        -7.6829   -8.7511   -4.1953 C.3       1 <0>         0.0414
     20 H1         -8.5771   -8.5844   -3.5947 H         1 <0>         0.1088
     21 C15        -8.0064   -8.5062   -5.6705 C.3       1 <0>        -0.1148
     22 C16        -8.6007   -7.1062   -5.8367 C.3       1 <0>        -0.1418
     23 C17        -8.9194   -6.8650   -7.2898 C.2       1 <0>         0.5178
     24 O3         -8.6934   -7.7279   -8.1115 O.2       1 <0>        -0.5301
     25 N2         -9.4555   -5.6903   -7.6761 N.am      1 <0>        -0.8624
     26 C18        -7.2129  -10.1713   -4.0132 C.2       1 <0>         0.5062
     27 O4         -6.1001  -10.3927   -3.5670 O.co2     1 <0>        -0.6671
     28 O5         -7.9456  -11.0989   -4.3119 O.co2     1 <0>        -0.6743
     29 H2          2.7808   -0.4019   -1.8751 H         1 <0>         0.1084
     30 H3          2.2241   -2.1134   -2.3852 H         1 <0>         0.1013
     31 H4          0.5013    0.2485   -1.5699 H         1 <0>         0.1201
     32 H5         -0.8578   -1.4975   -3.1020 H         1 <0>         0.0759
     33 H6          0.0472   -2.7474   -2.2148 H         1 <0>         0.0721
     34 H7         -1.7591   -3.3841   -3.0350 H         1 <0>         0.1354
     35 H8         -3.6898   -4.8948   -3.1945 H         1 <0>         0.1382
     36 H9         -5.1992   -3.3301    0.5116 H         1 <0>         0.1409
     37 H10        -3.2575   -1.8324    0.6592 H         1 <0>         0.1376
     38 H11        -6.5510   -5.0129   -0.7467 H         1 <0>         0.1589
     39 H12        -7.0935   -8.5858   -6.2608 H         1 <0>         0.1045
     40 H13        -8.7264   -9.2495   -6.0129 H         1 <0>         0.0987
     41 H14        -9.5136   -7.0265   -5.2465 H         1 <0>         0.0929
     42 H15        -7.8807   -6.3629   -5.4944 H         1 <0>         0.0766
     43 H16        -9.6362   -5.0002   -7.0189 H         1 <0>         0.3985
     44 H17        -9.6606   -5.5351   -8.6114 H         1 <0>         0.3975
@<TRIPOS>BOND
     1    1    2 2
     2    1   29 1
     3    1   30 1
     4    2    3 1
     5    2   31 1
     6    3    4 1
     7    3   32 1
     8    3   33 1
     9    4    5 1
    10    5   10 ar
    11    5    6 ar
    12    6    7 ar
    13    6   34 1
    14    7    8 ar
    15    7   35 1
    16    8    9 ar
    17    8   11 1
    18    9   10 ar
    19    9   36 1
    20   10   37 1
    21   11   12 2
    22   11   38 1
    23   12   18 1
    24   12   13 1
    25   13   14 2
    26   13   15 am
    27   15   16 1
    28   15   19 1
    29   16   17 2
    30   16   18 1
    31   19   20 1
    32   19   21 1
    33   19   26 1
    34   21   22 1
    35   21   39 1
    36   21   40 1
    37   22   23 1
    38   22   41 1
    39   22   42 1
    40   23   24 2
    41   23   25 am
    42   25   43 1
    43   25   44 1
    44   26   27 2
    45   26   28 1
@<TRIPOS>MOLECULE
ZINC52362476
   40    41     0     0     0
SMALL
USER_CHARGES

@<TRIPOS>ATOM
      1 C1         -0.4847    1.3843   -0.1426 C.3       1 <0>        -0.1595
      2 C2         -0.3740   -0.1417   -0.1425 C.3       1 <0>         0.1289
      3 H1         -1.3721   -0.5784   -0.1770 H         1 <0>         0.1158
      4 C3          0.4117   -0.5884   -1.3485 C.2       1 <0>         0.5022
      5 O1          1.4415   -1.2128   -1.2042 O.2       1 <0>        -0.5243
      6 N1         -0.0299   -0.2939   -2.5873 N.am      1 <0>        -0.6472
      7 C4          0.7481   -0.6237   -3.7054 C.ar      1 <0>         0.0220
      8 C5          0.7623    0.2141   -4.8127 C.ar      1 <0>        -0.0741
      9 C6          1.5282   -0.1104   -5.9148 C.ar      1 <0>        -0.2351
     10 C7          2.2848   -1.2747   -5.9162 C.ar      1 <0>         0.2902
     11 C8          2.2712   -2.1132   -4.8080 C.ar      1 <0>        -0.0853
     12 C9          1.5090   -1.7850   -3.7034 C.ar      1 <0>        -0.0588
     13 Cl1         3.2168   -3.5691   -4.8091 Cl        1 <0>        -0.0864
     14 N2          3.0605   -1.6041   -7.0337 N.2       1 <0>        -1.0781
     15 S1          3.1750   -0.5467   -8.3030 S.o2      1 <0>         2.5250
     16 O2          1.8601   -0.4780   -8.8374 O.2       1 <0>        -1.0299
     17 O3          3.7964    0.6089   -7.7574 O.2       1 <0>        -1.0286
     18 C10         4.2882   -1.3557   -9.4848 C.3       1 <0>        -0.6351
     19 N3          0.3098   -0.5817    1.0761 N.am      1 <0>        -0.7081
     20 C11        -0.3900   -0.7615    2.2139 C.2       1 <0>         0.5926
     21 O4         -1.5889   -0.5585    2.2289 O.2       1 <0>        -0.5380
     22 C12         0.2979   -1.2041    3.4398 C.2       1 <0>        -0.2367
     23 C13        -0.3060   -1.4541    4.7568 C.2       1 <0>        -0.1643
     24 C14         0.7003   -1.8376    5.5572 C.2       1 <0>        -0.0421
     25 O5          1.8437   -1.8426    4.8544 O.3       1 <0>        -0.1736
     26 C15         1.6270   -1.4733    3.5883 C.2       1 <0>         0.0281
     27 H2          0.5134    1.8210   -0.1081 H         1 <0>         0.0658
     28 H3         -0.9934    1.7117   -1.0493 H         1 <0>         0.0746
     29 H4         -1.0529    1.7074    0.7297 H         1 <0>         0.0731
     30 H5         -0.8863    0.1462   -2.7051 H         1 <0>         0.4043
     31 H6          0.1737    1.1196   -4.8121 H         1 <0>         0.1110
     32 H7          1.5386    0.5414   -6.7759 H         1 <0>         0.1146
     33 H8          1.5015   -2.4340   -2.8402 H         1 <0>         0.1323
     34 H9          3.8604   -2.3099   -9.7923 H         1 <0>         0.1160
     35 H10         4.4170   -0.7168  -10.3586 H         1 <0>         0.1011
     36 H11         5.2563   -1.5264   -9.0138 H         1 <0>         0.1162
     37 H12         1.2661   -0.7436    1.0641 H         1 <0>         0.4087
     38 H13        -1.3469   -1.3500    5.0252 H         1 <0>         0.1597
     39 H14         0.6054   -2.1002    6.6005 H         1 <0>         0.2088
     40 H15         2.3769   -1.3986    2.8147 H         1 <0>         0.2138
@<TRIPOS>BOND
     1    1    2 1
     2    1   27 1
     3    1   28 1
     4    1   29 1
     5    2    3 1
     6    2    4 1
     7    2   19 1
     8    4    5 2
     9    4    6 am
    10    6    7 1
    11    6   30 1
    12    7   12 ar
    13    7    8 ar
    14    8    9 ar
    15    8   31 1
    16    9   10 ar
    17    9   32 1
    18   10   11 ar
    19   10   14 1
    20   11   12 ar
    21   11   13 1
    22   12   33 1
    23   14   15 1
    24   15   16 2
    25   15   17 2
    26   15   18 1
    27   18   34 1
    28   18   35 1
    29   18   36 1
    30   19   20 am
    31   19   37 1
    32   20   21 2
    33   20   22 1
    34   22   26 2
    35   22   23 1
    36   23   24 2
    37   23   38 1
    38   24   25 1
    39   24   39 1
    40   25   26 1
    41   26   40 1
@<TRIPOS>MOLECULE
ZINC60243534
   40    41     0     0     0
SMALL
USER_CHARGES

@<TRIPOS>ATOM
      1 C1         -0.0184    1.5028    0.0103 C.3       1 <0>        -0.1204
      2 C2          0.0021   -0.0041    0.0020 C.ar      1 <0>        -0.0744
      3 C3          0.0058   -0.6889   -1.1956 C.ar      1 <0>        -0.0832
      4 C4          0.0251   -2.0722   -1.2050 C.ar      1 <0>        -0.1209
      5 C5          0.0402   -2.7784   -0.0150 C.ar      1 <0>        -0.0381
      6 C6          0.0367   -2.1065    1.1894 C.ar      1 <0>        -0.5797
      7 C7          0.0231   -0.7101    1.2062 C.ar      1 <0>        -0.0030
      8 C8          0.0249    0.0165    2.4924 C.2       1 <0>         0.4983
      9 O1         -1.0261    0.3006    3.0310 O.2       1 <0>        -0.4714
     10 O2          1.1922    0.3640    3.0680 O.3       1 <0>        -0.3200
     11 C9          1.1192    1.0649    4.3112 C.3       1 <0>         0.0354
     12 S1          0.0560   -3.0076    2.7034 S.o2      1 <0>         2.5839
     13 O3         -0.9733   -2.4596    3.5155 O.2       1 <0>        -1.0101
     14 O4          0.1003   -4.3847    2.3558 O.2       1 <0>        -1.0244
     15 N1          1.4888   -2.6640    3.4594 N.2       1 <0>        -1.0721
     16 C10         1.7830   -3.2444    4.6953 C.ar      1 <0>         0.2626
     17 C11         0.8773   -4.1146    5.2891 C.ar      1 <0>        -0.2144
     18 C12         1.1715   -4.6870    6.5108 C.ar      1 <0>        -0.0816
     19 C13         2.3661   -4.3945    7.1435 C.ar      1 <0>        -0.1350
     20 C14         3.2695   -3.5286    6.5556 C.ar      1 <0>        -0.6275
     21 C15         2.9842   -2.9573    5.3308 C.ar      1 <0>        -0.0741
     22 S2          4.7894   -3.1585    7.3666 S.o2      1 <0>         2.7002
     23 O5          5.2196   -1.8993    6.8681 O.2       1 <0>        -0.9709
     24 O6          4.5797   -3.3983    8.7514 O.2       1 <0>        -0.9754
     25 N2          5.9012   -4.2745    6.8560 N.pl3     1 <0>        -1.2508
     26 H1          1.0042    1.8801    0.0026 H         1 <0>         0.0806
     27 H2         -0.5455    1.8639   -0.8728 H         1 <0>         0.0752
     28 H3         -0.5286    1.8543    0.9071 H         1 <0>         0.0670
     29 H4         -0.0066   -0.1439   -2.1280 H         1 <0>         0.1347
     30 H5          0.0279   -2.6034   -2.1454 H         1 <0>         0.1346
     31 H6          0.0545   -3.8583   -0.0295 H         1 <0>         0.1469
     32 H7          0.6024    0.4480    5.0463 H         1 <0>         0.0649
     33 H8          2.1268    1.2838    4.6646 H         1 <0>         0.1040
     34 H9          0.5727    1.9975    4.1710 H         1 <0>         0.0524
     35 H10        -0.0560   -4.3429    4.7959 H         1 <0>         0.1035
     36 H11         0.4679   -5.3636    6.9729 H         1 <0>         0.1137
     37 H12         2.5936   -4.8433    8.0991 H         1 <0>         0.1230
     38 H13         3.6924   -2.2847    4.8698 H         1 <0>         0.1347
     39 H14         6.8404   -4.0369    6.8088 H         1 <0>         0.4153
     40 H15         5.6132   -5.1659    6.6041 H         1 <0>         0.4167
@<TRIPOS>BOND
     1    1    2 1
     2    1   26 1
     3    1   27 1
     4    1   28 1
     5    2    7 ar
     6    2    3 ar
     7    3    4 ar
     8    3   29 1
     9    4    5 ar
    10    4   30 1
    11    5    6 ar
    12    5   31 1
    13    6    7 ar
    14    6   12 1
    15    7    8 1
    16    8    9 2
    17    8   10 1
    18   10   11 1
    19   11   32 1
    20   11   33 1
    21   11   34 1
    22   12   13 2
    23   12   14 2
    24   12   15 1
    25   15   16 1
    26   16   21 ar
    27   16   17 ar
    28   17   18 ar
    29   17   35 1
    30   18   19 ar
    31   18   36 1
    32   19   20 ar
    33   19   37 1
    34   20   21 ar
    35   20   22 1
    36   21   38 1
    37   22   23 2
    38   22   24 2
    39   22   25 1
    40   25   39 1
    41   25   40 1
@<TRIPOS>MOLECULE
ZINC66517263
   44    45     0     0     0
SMALL
USER_CHARGES

@<TRIPOS>ATOM
      1 C1         -0.0000    1.5764    0.0261 C.3       1 <0>        -0.1593
      2 C2          0.0302    0.0480   -0.0378 C.3       1 <0>         0.1737
      3 H1          0.5456   -0.2676   -0.9449 H         1 <0>         0.1275
      4 C3          0.7581   -0.4908    1.1668 C.2       1 <0>         0.4414
      5 O1          0.1897   -1.2296    1.9356 O.2       1 <0>        -0.4912
      6 O2          2.0379   -0.1500    1.3856 O.3       1 <0>        -0.2748
      7 C4          2.6237   -0.5746    2.5372 C.ar      1 <0>        -0.0478
      8 C5          3.0148   -1.8990    2.6685 C.ar      1 <0>        -0.0686
      9 C6          3.6097   -2.3310    3.8373 C.ar      1 <0>        -0.1746
     10 C7          3.8168   -1.4390    4.8815 C.ar      1 <0>         0.2939
     11 C8          3.4254   -0.1131    4.7490 C.ar      1 <0>        -0.2473
     12 C9          2.8350    0.3183    3.5776 C.ar      1 <0>        -0.0546
     13 N1          4.4189   -1.8758    6.0659 N.2       1 <0>        -1.0938
     14 S1          4.6657   -0.8117    7.3106 S.o2      1 <0>         2.5257
     15 O3          5.5823    0.1437    6.7946 O.2       1 <0>        -1.0283
     16 O4          3.3615   -0.4191    7.7159 O.2       1 <0>        -1.0285
     17 C10         5.4557   -1.7947    8.6146 C.3       1 <0>        -0.6365
     18 N2         -1.3410   -0.4674   -0.0508 N.am      1 <0>        -0.7259
     19 C11        -2.0148   -0.5610   -1.2143 C.2       1 <0>         0.7116
     20 O5         -1.4846   -0.2176   -2.2532 O.2       1 <0>        -0.5691
     21 N3         -3.2763   -1.0352   -1.2262 N.am      1 <0>        -0.6830
     22 C12        -3.9315   -1.2505   -2.4439 C.ar      1 <0>         0.1706
     23 C13        -5.3177   -1.1980   -2.5070 C.ar      1 <0>        -0.1545
     24 C14        -5.9613   -1.4104   -3.7105 C.ar      1 <0>        -0.0992
     25 C15        -5.2267   -1.6752   -4.8517 C.ar      1 <0>        -0.1443
     26 C16        -3.8462   -1.7286   -4.7921 C.ar      1 <0>        -0.0986
     27 C17        -3.1964   -1.5114   -3.5928 C.ar      1 <0>        -0.1297
     28 H2          1.0203    1.9599    0.0357 H         1 <0>         0.0860
     29 H3         -0.5264    1.9661   -0.8452 H         1 <0>         0.0764
     30 H4         -0.5154    1.8920    0.9332 H         1 <0>         0.0636
     31 H5          2.8537   -2.5926    1.8564 H         1 <0>         0.1086
     32 H6          3.9135   -3.3623    3.9397 H         1 <0>         0.1192
     33 H7          3.5857    0.5812    5.5605 H         1 <0>         0.1102
     34 H8          2.5339    1.3502    3.4729 H         1 <0>         0.1105
     35 H9          6.3947   -2.2044    8.2422 H         1 <0>         0.1158
     36 H10         5.6534   -1.1602    9.4786 H         1 <0>         0.1022
     37 H11         4.7938   -2.6101    8.9064 H         1 <0>         0.1157
     38 H12        -1.7640   -0.7414    0.7780 H         1 <0>         0.4087
     39 H13        -3.7302   -1.2273   -0.3907 H         1 <0>         0.4095
     40 H14        -5.8920   -0.9915   -1.6160 H         1 <0>         0.1241
     41 H15        -7.0394   -1.3700   -3.7601 H         1 <0>         0.1241
     42 H16        -5.7323   -1.8410   -5.7916 H         1 <0>         0.1205
     43 H17        -3.2753   -1.9360   -5.6851 H         1 <0>         0.1242
     44 H18        -2.1180   -1.5486   -3.5479 H         1 <0>         0.1459
@<TRIPOS>BOND
     1    1    2 1
     2    1   28 1
     3    1   29 1
     4    1   30 1
     5    2    3 1
     6    2    4 1
     7    2   18 1
     8    4    5 2
     9    4    6 1
    10    6    7 1
    11    7   12 ar
    12    7    8 ar
    13    8    9 ar
    14    8   31 1
    15    9   10 ar
    16    9   32 1
    17   10   11 ar
    18   10   13 1
    19   11   12 ar
    20   11   33 1
    21   12   34 1
    22   13   14 1
    23   14   15 2
    24   14   16 2
    25   14   17 1
    26   17   35 1
    27   17   36 1
    28   17   37 1
    29   18   19 am
    30   18   38 1
    31   19   20 2
    32   19   21 am
    33   21   22 1
    34   21   39 1
    35   22   27 ar
    36   22   23 ar
    37   23   24 ar
    38   23   40 1
    39   24   25 ar
    40   24   41 1
    41   25   26 ar
    42   25   42 1
    43   26   27 ar
    44   26   43 1
    45   27   44 1
@<TRIPOS>MOLECULE
ZINC07389003
   49    51     0     0     0
SMALL
USER_CHARGES
3,4-dimethyl-N-[5-(tetrahydrofuran-2-ylmethylcarbamoylmethylsulfanyl)-1,3,4-thiadiazol-2-yl]-benzamide
@<TRIPOS>ATOM
      1 C1          0.5931    8.0485   17.5447 C.3       1 <0>        -0.1262
      2 C2          0.3106    7.6017   16.1335 C.ar      1 <0>        -0.0521
      3 C3         -0.9974    7.4541   15.7065 C.ar      1 <0>        -0.1215
      4 C4         -1.2630    7.0510   14.4144 C.ar      1 <0>        -0.0874
      5 C5         -0.2086    6.7812   13.5400 C.ar      1 <0>        -0.1385
      6 C6          1.1084    6.9321   13.9771 C.ar      1 <0>        -0.0481
      7 C7          1.3600    7.3415   15.2705 C.ar      1 <0>        -0.0918
      8 C8          2.7813    7.5050   15.7442 C.3       1 <0>        -0.1210
      9 C9         -0.4856    6.3435   12.1558 C.2       1 <0>         0.5591
     10 O1          0.4345    6.1141   11.3951 O.2       1 <0>        -0.4626
     11 N1         -1.7584    6.1987   11.7368 N.am      1 <0>        -0.6094
     12 C10        -2.0193    5.7865   10.4334 C.2       1 <0>         0.2834
     13 N2         -1.1831    5.4876    9.4526 N.2       1 <0>        -0.2703
     14 N3         -1.5895    5.1262    8.3146 N.2       1 <0>        -0.2598
     15 C11        -2.8799    5.0237    8.0315 C.2       1 <0>        -0.0042
     16 S1         -3.5825    5.5167    9.6029 S.3       1 <0>         0.0523
     17 S2         -3.6767    4.5464    6.5342 S.3       1 <0>         0.1363
     18 C12        -2.3054    4.2041    5.3971 C.3       1 <0>        -0.1612
     19 C13        -2.8557    3.7795    4.0600 C.2       1 <0>         0.5373
     20 O2         -4.0549    3.7141    3.8908 O.2       1 <0>        -0.5232
     21 N4         -2.0152    3.4723    3.0521 N.am      1 <0>        -0.7179
     22 C14        -2.5502    3.0595    1.7523 C.3       1 <0>         0.1274
     23 C15        -1.3936    2.7709    0.7932 C.3       1 <0>         0.0613
     24 H1         -0.7020    3.6129    0.7633 H         1 <0>         0.0799
     25 C16        -1.9281    2.4530   -0.6265 C.3       1 <0>        -0.1465
     26 C17        -0.7781    1.6063   -1.2241 C.3       1 <0>        -0.1564
     27 C18        -0.0127    1.0858    0.0080 C.3       1 <0>         0.0456
     28 O3         -0.7045    1.5588    1.1759 O.3       1 <0>        -0.3720
     29 H2          0.6508    9.1365   17.5767 H         1 <0>         0.0783
     30 H3         -0.2077    7.7077   18.2009 H         1 <0>         0.0712
     31 H4          1.5406    7.6245   17.8773 H         1 <0>         0.0762
     32 H5         -1.8121    7.6588   16.3853 H         1 <0>         0.1334
     33 H6         -2.2843    6.9401   14.0812 H         1 <0>         0.1255
     34 H7          1.9286    6.7293   13.3044 H         1 <0>         0.1400
     35 H8          3.1139    8.5247   15.5501 H         1 <0>         0.0757
     36 H9          2.8331    7.3034   16.8141 H         1 <0>         0.0748
     37 H10         3.4248    6.8052   15.2110 H         1 <0>         0.0709
     38 H11        -2.4926    6.3817   12.3438 H         1 <0>         0.4281
     39 H12        -1.6857    3.4057    5.8051 H         1 <0>         0.1306
     40 H13        -1.7032    5.1041    5.2729 H         1 <0>         0.1299
     41 H14        -1.0561    3.5246    3.1875 H         1 <0>         0.4083
     42 H15        -3.1699    3.8580    1.3442 H         1 <0>         0.0877
     43 H16        -3.1524    2.1595    1.8764 H         1 <0>         0.0821
     44 H17        -2.0763    3.3679   -1.2003 H         1 <0>         0.0860
     45 H18        -2.8505    1.8746   -0.5744 H         1 <0>         0.0836
     46 H19        -0.1292    2.2265   -1.8424 H         1 <0>         0.0776
     47 H20        -1.1762    0.7745   -1.8053 H         1 <0>         0.0808
     48 H21         0.0021   -0.0041    0.0020 H         1 <0>         0.0860
     49 H22         1.0072    1.4702    0.0003 H         1 <0>         0.0608
@<TRIPOS>BOND
     1    1    2 1
     2    1   29 1
     3    1   30 1
     4    1   31 1
     5    2    7 ar
     6    2    3 ar
     7    3    4 ar
     8    3   32 1
     9    4    5 ar
    10    4   33 1
    11    5    6 ar
    12    5    9 1
    13    6    7 ar
    14    6   34 1
    15    7    8 1
    16    8   35 1
    17    8   36 1
    18    8   37 1
    19    9   10 2
    20    9   11 am
    21   11   12 1
    22   11   38 1
    23   12   16 1
    24   12   13 2
    25   13   14 1
    26   14   15 2
    27   15   16 1
    28   15   17 1
    29   17   18 1
    30   18   19 1
    31   18   39 1
    32   18   40 1
    33   19   20 2
    34   19   21 am
    35   21   22 1
    36   21   41 1
    37   22   23 1
    38   22   42 1
    39   22   43 1
    40   23   24 1
    41   23   28 1
    42   23   25 1
    43   25   26 1
    44   25   44 1
    45   25   45 1
    46   26   27 1
    47   26   46 1
    48   26   47 1
    49   27   28 1
    50   27   48 1
    51   27   49 1
@<TRIPOS>MOLECULE
ZINC12782590
   50    52     0     0     0
SMALL
USER_CHARGES
(3R)-3-acetamido-N-[(7-chloro-4-oxo-3H-quinazolin-2-yl)methyl]-N-ethyl-3-(2-thienyl)propanamide
@<TRIPOS>ATOM
      1 C1         -5.7232   -2.4604   -1.5836 C.3       1 <0>        -0.1750
      2 C2         -4.6810   -3.4107   -2.1764 C.3       1 <0>         0.1071
      3 N1         -3.5994   -2.6316   -2.7842 N.am      1 <0>        -0.5923
      4 C3         -3.6827   -2.2374   -4.1927 C.3       1 <0>         0.1617
      5 C4         -3.0555   -3.3055   -5.0512 C.2       1 <0>         0.3838
      6 N2         -3.0354   -3.1212   -6.3971 N.am      1 <0>        -0.6495
      7 H1         -3.4199   -2.3161   -6.7776 H         1 <0>         0.4210
      8 C5         -2.4835   -4.0503   -7.2119 C.2       1 <0>         0.5549
      9 O1         -2.4585   -3.8976   -8.4194 O.2       1 <0>        -0.5032
     10 C6         -1.9150   -5.2508   -6.5821 C.ar      1 <0>        -0.1999
     11 C7         -1.3234   -6.2664   -7.3308 C.ar      1 <0>        -0.0246
     12 C8         -0.8094   -7.3629   -6.6961 C.ar      1 <0>        -0.1310
     13 C9         -0.8698   -7.4748   -5.3119 C.ar      1 <0>         0.0116
     14 C10        -1.4497   -6.4842   -4.5486 C.ar      1 <0>        -0.1022
     15 C11        -1.9817   -5.3556   -5.1747 C.ar      1 <0>         0.1718
     16 N3         -2.5574   -4.3522   -4.4664 N.2       1 <0>        -0.5030
     17 Cl1        -0.2077   -8.8791   -4.5352 Cl        1 <0>        -0.0495
     18 C12        -2.5277   -2.2776   -2.0476 C.2       1 <0>         0.5267
     19 O2         -1.6323   -1.6326   -2.5507 O.2       1 <0>        -0.5200
     20 C13        -2.4420   -2.6831   -0.5987 C.3       1 <0>        -0.1449
     21 C14        -1.1360   -2.1586    0.0013 C.3       1 <0>         0.2502
     22 H2         -0.2950   -2.5073   -0.5981 H         1 <0>         0.1168
     23 C15        -0.9918   -2.6668    1.4127 C.2       1 <0>        -0.1570
     24 C16        -0.2566   -3.7078    1.8742 C.2       1 <0>        -0.1413
     25 C17        -0.2728   -3.9925    3.2268 C.2       1 <0>        -0.1548
     26 C18        -1.0317   -3.2287    4.0501 C.2       1 <0>        -0.1717
     27 S1         -1.7513   -2.0588    2.9096 S.3       1 <0>         0.0390
     28 N4         -1.1558   -0.6938    0.0094 N.am      1 <0>        -0.7192
     29 C19         0.0021   -0.0041    0.0020 C.2       1 <0>         0.5205
     30 O3          1.0605   -0.5961   -0.0113 O.2       1 <0>        -0.5368
     31 C20        -0.0184    1.5028    0.0103 C.3       1 <0>        -0.1740
     32 H3         -5.2543   -1.8353   -0.8236 H         1 <0>         0.0591
     33 H4         -6.1299   -1.8287   -2.3733 H         1 <0>         0.0602
     34 H5         -6.5279   -3.0401   -1.1314 H         1 <0>         0.0722
     35 H6         -5.1499   -4.0358   -2.9364 H         1 <0>         0.0819
     36 H7         -4.2743   -4.0424   -1.3867 H         1 <0>         0.0859
     37 H8         -4.7284   -2.1128   -4.4739 H         1 <0>         0.1167
     38 H9         -3.1525   -1.2962   -4.3386 H         1 <0>         0.1220
     39 H10        -1.2720   -6.1881   -8.4068 H         1 <0>         0.1487
     40 H11        -0.3513   -8.1502   -7.2763 H         1 <0>         0.1458
     41 H12        -1.4924   -6.5807   -3.4737 H         1 <0>         0.1501
     42 H13        -2.4656   -3.7702   -0.5237 H         1 <0>         0.1170
     43 H14        -3.2870   -2.2629   -0.0532 H         1 <0>         0.1042
     44 H15         0.3353   -4.3042    1.1957 H         1 <0>         0.1337
     45 H16         0.3071   -4.8139    3.6209 H         1 <0>         0.1348
     46 H17        -1.1665   -3.3077    5.1188 H         1 <0>         0.1856
     47 H18        -2.0023   -0.2203    0.0200 H         1 <0>         0.3990
     48 H19         1.0042    1.8801    0.0026 H         1 <0>         0.0923
     49 H20        -0.5455    1.8639   -0.8728 H         1 <0>         0.0884
     50 H21        -0.5286    1.8543    0.9071 H         1 <0>         0.0874
@<TRIPOS>BOND
     1    1    2 1
     2    1   32 1
     3    1   33 1
     4    1   34 1
     5    2    3 1
     6    2   35 1
     7    2   36 1
     8    3    4 1
     9    3   18 am
    10    4    5 1
    11    4   37 1
    12    4   38 1
    13    5   16 2
    14    5    6 1
    15    6    7 1
    16    6    8 am
    17    8    9 2
    18    8   10 1
    19   10   15 ar
    20   10   11 ar
    21   11   12 ar
    22   11   39 1
    23   12   13 ar
    24   12   40 1
    25   13   14 ar
    26   13   17 1
    27   14   15 ar
    28   14   41 1
    29   15   16 1
    30   18   19 2
    31   18   20 1
    32   20   21 1
    33   20   42 1
    34   20   43 1
    35   21   22 1
    36   21   23 1
    37   21   28 1
    38   23   27 1
    39   23   24 2
    40   24   25 1
    41   24   44 1
    42   25   26 2
    43   25   45 1
    44   26   27 1
    45   26   46 1
    46   28   29 am
    47   28   47 1
    48   29   30 2
    49   29   31 1
    50   31   48 1
    51   31   49 1
    52   31   50 1
@<TRIPOS>MOLECULE
ZINC24955242
   56    58     0     0     0
SMALL
USER_CHARGES
N-[2-(tert-butylamino)-2-oxo-ethyl]-N-ethyl-3-(oxoBLAHyl)propanamide
@<TRIPOS>ATOM
      1 C1         -3.5582    5.5884   -8.3155 C.3       1 <0>        -0.1744
      2 C2         -3.6094    4.1446   -8.8190 C.3       1 <0>         0.1040
      3 N1         -2.3587    3.8243   -9.5115 N.am      1 <0>        -0.5932
      4 C3         -2.2370    4.0634  -10.9517 C.3       1 <0>         0.0927
      5 C4         -2.6744    2.8331  -11.7040 C.2       1 <0>         0.5010
      6 O1         -3.0509    1.8530  -11.0969 O.2       1 <0>        -0.5287
      7 N2         -2.6474    2.8220  -13.0514 N.am      1 <0>        -0.7346
      8 C5         -3.0726    1.6259  -13.7828 C.3       1 <0>         0.1734
      9 C6         -4.5298    1.3096  -13.4397 C.3       1 <0>        -0.1648
     10 C7         -2.9455    1.8757  -15.2869 C.3       1 <0>        -0.1567
     11 C8         -2.1869    0.4433  -13.3855 C.3       1 <0>        -0.1654
     12 C9         -1.3203    3.3096   -8.8237 C.2       1 <0>         0.5236
     13 O2         -0.2849    3.0444   -9.3970 O.2       1 <0>        -0.5410
     14 C10        -1.4455    3.0636   -7.3422 C.3       1 <0>        -0.1244
     15 C11        -0.1353    2.4802   -6.8095 C.3       1 <0>        -0.0614
     16 C12        -0.2605    2.2341   -5.3280 C.2       1 <0>         0.4169
     17 N3          0.7935    1.7147   -4.6474 N.am      1 <0>        -0.6486
     18 H1          1.7278    1.4781   -5.1776 H         1 <0>         0.4505
     19 C13         0.7243    1.4786   -3.3234 C.2       1 <0>         0.5559
     20 O3          1.6782    1.0115   -2.7254 O.2       1 <0>        -0.5232
     21 C14        -0.4919    1.7857   -2.6310 C.2       1 <0>        -0.2426
     22 C15        -0.7906    1.6116   -1.2017 C.2       1 <0>        -0.0746
     23 C16        -2.0159    1.9782   -0.7883 C.2       1 <0>        -0.2013
     24 S1         -2.8373    2.5674   -2.2512 S.3       1 <0>         0.1799
     25 C17        -1.5234    2.3180   -3.4156 C.2       1 <0>         0.1067
     26 N4         -1.3813    2.5242   -4.7226 N.2       1 <0>        -0.4908
     27 C18        -2.2065    1.7595    0.6885 C.3       1 <0>        -0.0370
     28 C19        -0.7722    1.6018    1.2459 C.3       1 <0>        -0.1125
     29 C20        -0.0127    1.0858    0.0080 C.3       1 <0>        -0.0600
     30 H2         -4.4973    5.8289   -7.7956 H         1 <0>         0.0723
     31 H3         -3.4267    6.2699   -9.1689 H         1 <0>         0.0587
     32 H4         -2.7139    5.7044   -7.6201 H         1 <0>         0.0605
     33 H5         -3.7409    3.4631   -7.9656 H         1 <0>         0.0880
     34 H6         -4.4537    4.0285   -9.5144 H         1 <0>         0.0806
     35 H7         -2.8739    4.9136  -11.2373 H         1 <0>         0.1072
     36 H8         -1.1894    4.2909  -11.1984 H         1 <0>         0.1142
     37 H9         -2.3061    3.7110  -13.6020 H         1 <0>         0.4188
     38 H10        -4.8491    0.4115  -13.9888 H         1 <0>         0.0621
     39 H11        -5.1666    2.1598  -13.7253 H         1 <0>         0.0530
     40 H12        -4.6212    1.1300  -12.3583 H         1 <0>         0.0771
     41 H13        -3.2648    0.9776  -15.8360 H         1 <0>         0.0730
     42 H14        -1.8979    2.1032  -15.5335 H         1 <0>         0.0628
     43 H15        -3.5824    2.7259  -15.5725 H         1 <0>         0.0624
     44 H16        -2.5062   -0.4547  -13.9347 H         1 <0>         0.0615
     45 H17        -2.2784    0.2637  -12.3041 H         1 <0>         0.0772
     46 H18        -1.1393    0.6707  -13.6320 H         1 <0>         0.0537
     47 H19        -1.6592    4.0131   -6.8296 H         1 <0>         0.1091
     48 H20        -2.2652    2.3540   -7.1563 H         1 <0>         0.1104
     49 H21         0.0785    1.5307   -7.3221 H         1 <0>         0.1149
     50 H22         0.6844    3.1898   -6.9953 H         1 <0>         0.1148
     51 H23        -2.7224    2.6278    1.1242 H         1 <0>         0.0817
     52 H24        -2.8109    0.8548    0.8502 H         1 <0>         0.0874
     53 H25        -0.4084    2.5765    1.6031 H         1 <0>         0.0786
     54 H26        -0.7798    0.8851    2.0803 H         1 <0>         0.0866
     55 H27         0.0087   -0.0136   -0.0195 H         1 <0>         0.0834
     56 H28         1.0164    1.4734   -0.0211 H         1 <0>         0.0806
@<TRIPOS>BOND
     1    1    2 1
     2    1   30 1
     3    1   31 1
     4    1   32 1
     5    2    3 1
     6    2   33 1
     7    2   34 1
     8    3    4 1
     9    3   12 am
    10    4    5 1
    11    4   35 1
    12    4   36 1
    13    5    6 2
    14    5    7 am
    15    7    8 1
    16    7   37 1
    17    8    9 1
    18    8   10 1
    19    8   11 1
    20    9   38 1
    21    9   39 1
    22    9   40 1
    23   10   41 1
    24   10   42 1
    25   10   43 1
    26   11   44 1
    27   11   45 1
    28   11   46 1
    29   12   13 2
    30   12   14 1
    31   14   15 1
    32   14   47 1
    33   14   48 1
    34   15   16 1
    35   15   49 1
    36   15   50 1
    37   16   26 2
    38   16   17 1
    39   17   18 1
    40   17   19 am
    41   19   20 2
    42   19   21 1
    43   21   25 2
    44   21   22 1
    45   22   29 1
    46   22   23 2
    47   23   24 1
    48   23   27 1
    49   24   25 1
    50   25   26 1
    51   27   28 1
    52   27   51 1
    53   27   52 1
    54   28   29 1
    55   28   53 1
    56   28   54 1
    57   29   55 1
    58   29   56 1
@<TRIPOS>MOLECULE
ZINC13831135
   59    62     0     0     0
SMALL
USER_CHARGES

@<TRIPOS>ATOM
      1 C1         -0.0168    1.3889    0.0097 C.ar      1 <0>        -0.1468
      2 C2          1.1424    2.1034    0.0024 C.ar      1 <0>        -0.0349
      3 C3          2.3733    1.4284   -0.0129 C.ar      1 <0>        -0.1239
      4 C4          3.5939    2.1297   -0.0202 C.ar      1 <0>        -0.0427
      5 C5          4.7524    1.4066   -0.0348 C.ar      1 <0>        -0.1805
      6 C6          4.7030    0.0141   -0.0421 C.ar      1 <0>         0.1564
      7 N1          3.5646   -0.6358   -0.0352 N.ar      1 <0>        -0.4830
      8 C7          2.3949    0.0115   -0.0208 C.ar      1 <0>         0.1998
      9 C8          1.1773   -0.6905   -0.0134 C.ar      1 <0>        -0.6630
     10 C9          0.0021   -0.0041    0.0020 C.ar      1 <0>         0.0235
     11 S1          1.1722   -2.4525   -0.0239 S.o2      1 <0>         2.7046
     12 O1          2.0767   -2.8673    0.9905 O.2       1 <0>        -0.9362
     13 O2         -0.1906   -2.8546   -0.0404 O.2       1 <0>        -0.9676
     14 N2          1.8256   -2.9354   -1.4669 N.pl3     1 <0>        -1.1100
     15 C10         3.2284   -2.6420   -1.7705 C.3       1 <0>         0.1357
     16 C11         3.6826   -3.4945   -2.9570 C.3       1 <0>        -0.0953
     17 C12         3.6543   -4.9728   -2.5633 C.3       1 <0>        -0.1295
     18 C13         4.1084   -5.8253   -3.7498 C.3       1 <0>        -0.0983
     19 C14         5.5324   -5.4303   -4.1463 C.3       1 <0>        -0.1089
     20 C15         5.5607   -3.9521   -4.5400 C.3       1 <0>        -0.1084
     21 C16         5.1065   -3.0995   -3.3535 C.3       1 <0>        -0.1138
     22 C17         6.4598   -5.6575   -2.9803 C.2       1 <0>         0.5190
     23 O3          6.0246   -6.0925   -1.9352 O.2       1 <0>        -0.5307
     24 N3          7.7727   -5.3772   -3.0990 N.am      1 <0>        -0.7269
     25 C18         8.6742   -5.5980   -1.9656 C.3       1 <0>         0.1221
     26 C19        10.0982   -5.2030   -2.3620 C.3       1 <0>         0.0678
     27 H1         10.1309   -4.1542   -2.6572 H         1 <0>         0.0782
     28 C20        11.0749   -5.4619   -1.1874 C.3       1 <0>        -0.1490
     29 C21        12.4162   -5.6329   -1.9514 C.3       1 <0>        -0.1560
     30 C22        11.9630   -6.3150   -3.2602 C.3       1 <0>         0.0501
     31 O4         10.5671   -6.0373   -3.4333 O.3       1 <0>        -0.3784
     32 H2         -0.9632    1.9089    0.0261 H         1 <0>         0.1411
     33 H3          1.1150    3.1831    0.0081 H         1 <0>         0.1398
     34 H4          3.6137    3.2095   -0.0148 H         1 <0>         0.1433
     35 H5          5.7060    1.9136   -0.0411 H         1 <0>         0.1433
     36 H6          5.6271   -0.5446   -0.0540 H         1 <0>         0.1666
     37 H7         -0.9309   -0.5481    0.0084 H         1 <0>         0.1521
     38 H8          1.2795   -3.4125   -2.1111 H         1 <0>         0.4159
     39 H9          3.3329   -1.5862   -2.0207 H         1 <0>         0.0588
     40 H10         3.8442   -2.8720   -0.9010 H         1 <0>         0.0916
     41 H11         3.0118   -3.3303   -3.8003 H         1 <0>         0.0733
     42 H12         4.3250   -5.1370   -1.7200 H         1 <0>         0.0963
     43 H13         2.6398   -5.2542   -2.2808 H         1 <0>         0.0618
     44 H14         4.0883   -6.8784   -3.4693 H         1 <0>         0.0695
     45 H15         3.4377   -5.6611   -4.5931 H         1 <0>         0.0672
     46 H16         5.8559   -6.0377   -4.9915 H         1 <0>         0.0964
     47 H17         6.5751   -3.6707   -4.8224 H         1 <0>         0.0671
     48 H18         4.8899   -3.7879   -5.3833 H         1 <0>         0.0760
     49 H19         5.1267   -2.0464   -3.6340 H         1 <0>         0.0661
     50 H20         5.7773   -3.2638   -2.5102 H         1 <0>         0.0660
     51 H21         8.1207   -5.0293   -3.9349 H         1 <0>         0.4028
     52 H22         8.3507   -4.9906   -1.1203 H         1 <0>         0.0810
     53 H23         8.6541   -6.6511   -1.6851 H         1 <0>         0.0736
     54 H24        11.1134   -4.6066   -0.5127 H         1 <0>         0.0880
     55 H25        10.8102   -6.3724   -0.6497 H         1 <0>         0.0841
     56 H26        12.8720   -4.6643   -2.1565 H         1 <0>         0.0783
     57 H27        13.0999   -6.2749   -1.3960 H         1 <0>         0.0850
     58 H28        12.5260   -5.9112   -4.1017 H         1 <0>         0.0700
     59 H29        12.1211   -7.3912   -3.1903 H         1 <0>         0.0710
@<TRIPOS>BOND
     1    1   10 ar
     2    1    2 ar
     3    1   32 1
     4    2    3 ar
     5    2   33 1
     6    3    8 ar
     7    3    4 ar
     8    4    5 ar
     9    4   34 1
    10    5    6 ar
    11    5   35 1
    12    6    7 ar
    13    6   36 1
    14    7    8 ar
    15    8    9 ar
    16    9   10 ar
    17    9   11 1
    18   10   37 1
    19   11   12 2
    20   11   13 2
    21   11   14 1
    22   14   15 1
    23   14   38 1
    24   15   16 1
    25   15   39 1
    26   15   40 1
    27   16   21 1
    28   16   17 1
    29   16   41 1
    30   17   18 1
    31   17   42 1
    32   17   43 1
    33   18   19 1
    34   18   44 1
    35   18   45 1
    36   19   20 1
    37   19   22 1
    38   19   46 1
    39   20   21 1
    40   20   47 1
    41   20   48 1
    42   21   49 1
    43   21   50 1
    44   22   23 2
    45   22   24 am
    46   24   25 1
    47   24   51 1
    48   25   26 1
    49   25   52 1
    50   25   53 1
    51   26   27 1
    52   26   31 1
    53   26   28 1
    54   28   29 1
    55   28   54 1
    56   28   55 1
    57   29   30 1
    58   29   56 1
    59   29   57 1
    60   30   31 1
    61   30   58 1
    62   30   59 1
@<TRIPOS>MOLECULE
ZINC55342116
   55    58     0     0     0
SMALL
USER_CHARGES

@<TRIPOS>ATOM
      1 C1         -0.2683    1.8942    0.1788 C.ar      1 <0>        -0.0916
      2 C2          0.9162    2.6076    0.2015 C.ar      1 <0>        -0.1093
      3 C3          2.1172    1.9667   -0.0403 C.ar      1 <0>        -0.0824
      4 C4          2.1372    0.6111   -0.3049 C.ar      1 <0>        -0.1010
      5 C5          0.9499   -0.1078   -0.3279 C.ar      1 <0>         0.1594
      6 C6         -0.2547    0.5387   -0.0851 C.ar      1 <0>        -0.1350
      7 N1          0.9670   -1.4835   -0.5967 N.pl3     1 <0>        -0.3249
      8 C7         -0.1120   -2.2966   -0.6541 C.2       1 <0>         0.0513
      9 C8          0.3276   -3.5447   -0.9374 C.2       1 <0>        -0.2594
     10 C9          1.7207   -3.4939   -1.0572 C.2       1 <0>         0.0572
     11 N2          2.1042   -2.2583   -0.8592 N.2       1 <0>        -0.2891
     12 C10         3.4056    2.7480   -0.0156 C.3       1 <0>         0.1674
     13 N3          3.9556    2.7401    1.3422 N.am      1 <0>        -0.7321
     14 C11         5.1121    3.3804    1.6046 C.2       1 <0>         0.5192
     15 O1          5.6976    3.9633    0.7166 O.2       1 <0>        -0.5005
     16 C12         5.6779    3.3723    3.0013 C.3       1 <0>        -0.1300
     17 C13         7.0519    4.0454    2.9990 C.3       1 <0>         0.0869
     18 H1          7.4467    4.0653    4.0148 H         1 <0>         0.0838
     19 C14         7.9865    3.2682    2.1157 C.2       1 <0>         0.5411
     20 O2          7.9718    2.0571    2.1774 O.2       1 <0>        -0.5530
     21 N4          8.8334    3.8560    1.2641 N.am      1 <0>        -0.7092
     22 C15         8.9040    5.3036    1.0873 C.3       1 <0>         0.1200
     23 C16         8.2502    6.0096    2.2766 C.3       1 <0>         0.0336
     24 N5          6.9202    5.4207    2.5000 N.3       1 <0>        -0.5021
     25 C17         6.1314    6.2437    3.4265 C.3       1 <0>         0.0875
     26 C18         5.6987    7.5086    2.7310 C.ar      1 <0>        -0.0882
     27 C19         6.3918    8.6859    2.9431 C.ar      1 <0>        -0.0976
     28 C20         5.9965    9.8468    2.3056 C.ar      1 <0>        -0.1016
     29 C21         4.9067    9.8333    1.4549 C.ar      1 <0>        -0.1241
     30 C22         4.2109    8.6567    1.2405 C.ar      1 <0>         0.0635
     31 C23         4.6111    7.4906    1.8758 C.ar      1 <0>         0.0994
     32 F1          3.9366    6.3393    1.6638 F         1 <0>        -0.1175
     33 F2          3.1457    8.6428    0.4097 F         1 <0>        -0.1285
     34 H2         -1.2045    2.3967    0.3721 H         1 <0>         0.1363
     35 H3          0.9031    3.6676    0.4082 H         1 <0>         0.1319
     36 H4          3.0756    0.1110   -0.4941 H         1 <0>         0.1395
     37 H5         -1.1800   -0.0179   -0.1023 H         1 <0>         0.1315
     38 H6         -1.1399   -2.0028   -0.5009 H         1 <0>         0.1780
     39 H7         -0.2882   -4.4247   -1.0509 H         1 <0>         0.1556
     40 H8          2.3678   -4.3295   -1.2796 H         1 <0>         0.1911
     41 H9          4.1207    2.2912   -0.6999 H         1 <0>         0.0752
     42 H10         3.2134    3.7757   -0.3237 H         1 <0>         0.0796
     43 H11         3.4874    2.2739    2.0524 H         1 <0>         0.3982
     44 H12         5.0082    3.9158    3.6678 H         1 <0>         0.1019
     45 H13         5.7779    2.3433    3.3468 H         1 <0>         0.1100
     46 H14         9.4276    3.2957    0.7407 H         1 <0>         0.4013
     47 H15         9.9479    5.6086    1.0150 H         1 <0>         0.0790
     48 H16         8.3834    5.5818    0.1709 H         1 <0>         0.0774
     49 H17         8.8656    5.8735    3.1659 H         1 <0>         0.0469
     50 H18         8.1478    7.0728    2.0594 H         1 <0>         0.0982
     51 H19         5.2515    5.6867    3.7482 H         1 <0>         0.0915
     52 H20         6.7391    6.4965    4.2954 H         1 <0>         0.0599
     53 H21         7.2429    8.6986    3.6078 H         1 <0>         0.1377
     54 H22         6.5392   10.7655    2.4725 H         1 <0>         0.1410
     55 H23         4.5984   10.7412    0.9579 H         1 <0>         0.1452
@<TRIPOS>BOND
     1    1    6 ar
     2    1    2 ar
     3    1   34 1
     4    2    3 ar
     5    2   35 1
     6    3    4 ar
     7    3   12 1
     8    4    5 ar
     9    4   36 1
    10    5    6 ar
    11    5    7 1
    12    6   37 1
    13    7   11 1
    14    7    8 1
    15    8    9 2
    16    8   38 1
    17    9   10 1
    18    9   39 1
    19   10   11 2
    20   10   40 1
    21   12   13 1
    22   12   41 1
    23   12   42 1
    24   13   14 am
    25   13   43 1
    26   14   15 2
    27   14   16 1
    28   16   17 1
    29   16   44 1
    30   16   45 1
    31   17   18 1
    32   17   24 1
    33   17   19 1
    34   19   20 2
    35   19   21 am
    36   21   22 1
    37   21   46 1
    38   22   23 1
    39   22   47 1
    40   22   48 1
    41   23   24 1
    42   23   49 1
    43   23   50 1
    44   24   25 1
    45   25   26 1
    46   25   51 1
    47   25   52 1
    48   26   31 ar
    49   26   27 ar
    50   27   28 ar
    51   27   53 1
    52   28   29 ar
    53   28   54 1
    54   29   30 ar
    55   29   55 1
    56   30   31 ar
    57   30   33 1
    58   31   32 1
@<TRIPOS>MOLECULE
ZINC13301633
   37    40     0     0     0
SMALL
USER_CHARGES
5-[[4-(2-oxoindolin-5-yl)thiazol-2-yl]sulfamoyl]thiophene-3-carboxylic acid
@<TRIPOS>ATOM
      1 C1         -0.0126    1.0758    0.0080 C.ar      1 <0>        -0.0672
      2 C2          1.1722    1.7782    0.0004 C.ar      1 <0>        -0.1357
      3 C3          1.1635    3.1725    0.0080 C.ar      1 <0>         0.1432
      4 C4         -0.0550    3.8422    0.0232 C.ar      1 <0>        -0.1440
      5 C5         -1.2418    3.1493    0.0308 C.ar      1 <0>        -0.0313
      6 C6         -1.2306    1.7538    0.0174 C.ar      1 <0>        -0.0370
      7 C7         -2.5061    0.9970    0.0189 C.2       1 <0>         0.1214
      8 C8         -2.4998   -0.3659    0.1085 C.2       1 <0>        -0.2170
      9 S1         -4.2535   -0.7112    0.0678 S.3       1 <0>         0.0778
     10 C9         -4.8134    0.9802   -0.0729 C.2       1 <0>         0.3466
     11 N1         -3.6689    1.6386   -0.0727 N.2       1 <0>        -0.5279
     12 N2         -6.1062    1.4707   -0.1595 N.pl3     1 <0>        -0.9897
     13 S2         -7.3912    0.4263   -0.1383 S.o2      1 <0>         2.7233
     14 O1         -8.5645    1.2244   -0.2145 O.2       1 <0>        -0.9208
     15 O2         -7.1011   -0.5939   -1.0839 O.2       1 <0>        -0.9233
     16 C10        -7.4092   -0.3454    1.4456 C.2       1 <0>        -0.8200
     17 C11        -8.0332    0.0610    2.5682 C.2       1 <0>         0.0642
     18 C12        -7.8842   -0.7679    3.7385 C.2       1 <0>        -0.1952
     19 C13        -7.1069   -1.9012    3.6092 C.2       1 <0>        -0.1048
     20 S3         -6.6004   -1.8485    1.9542 S.3       1 <0>         0.1817
     21 C14        -8.5273   -0.4189    5.0138 C.2       1 <0>         0.5049
     22 O3         -9.2067    0.5856    5.0971 O.co2     1 <0>        -0.6258
     23 C15         0.2711    5.3182    0.0280 C.3       1 <0>        -0.1150
     24 C16         1.7842    5.3610    0.0138 C.2       1 <0>         0.5293
     25 O4          2.4766    6.3568    0.0126 O.2       1 <0>        -0.5054
     26 N3          2.2164    4.0889    0.0029 N.am      1 <0>        -0.6596
     27 H1          0.0021   -0.0041    0.0020 H         1 <0>         0.1367
     28 H2          2.1122    1.2465   -0.0118 H         1 <0>         0.1310
     29 H3         -2.1805    3.6832    0.0426 H         1 <0>         0.1416
     30 H4         -1.6653   -1.0472    0.1848 H         1 <0>         0.2042
     31 H5         -6.2587    2.4258   -0.2327 H         1 <0>         0.4416
     32 H6         -8.6215    0.9664    2.5899 H         1 <0>         0.1568
     33 H7         -6.8714   -2.6419    4.3592 H         1 <0>         0.2009
     34 H8         -0.1330    5.8015   -0.8615 H         1 <0>         0.1249
     35 H9         -0.1159    5.7919    0.9303 H         1 <0>         0.1255
     36 H10         3.1528    3.8363   -0.0074 H         1 <0>         0.4131
     37 O5         -8.3636   -1.2130    6.0907 O.co2     1 <0>        -0.7492
@<TRIPOS>BOND
     1    1    6 ar
     2    1    2 ar
     3    1   27 1
     4    2    3 ar
     5    2   28 1
     6    3   26 1
     7    3    4 ar
     8    4    5 ar
     9    4   23 1
    10    5    6 ar
    11    5   29 1
    12    6    7 1
    13    7   11 1
    14    7    8 2
    15    8    9 1
    16    8   30 1
    17    9   10 1
    18   10   11 2
    19   10   12 1
    20   12   13 1
    21   12   31 1
    22   13   14 2
    23   13   15 2
    24   13   16 1
    25   16   20 1
    26   16   17 2
    27   17   18 1
    28   17   32 1
    29   18   19 2
    30   18   21 1
    31   19   20 1
    32   19   33 1
    33   21   22 2
    34   21   37 1
    35   23   24 1
    36   23   34 1
    37   23   35 1
    38   24   25 2
    39   24   26 am
    40   26   36 1
@<TRIPOS>MOLECULE
ZINC38577067
   32    34     0     0     0
SMALL
USER_CHARGES

@<TRIPOS>ATOM
      1 C1         -0.0167    1.3782    0.0096 C.ar      1 <0>        -0.0860
      2 C2          1.1707    2.0857    0.0021 C.ar      1 <0>        -0.0958
      3 C3          2.3778    1.4105   -0.0131 C.ar      1 <0>        -0.0806
      4 C4          2.3961    0.0274   -0.0207 C.ar      1 <0>        -0.0946
      5 C5          1.2082   -0.6793   -0.0132 C.ar      1 <0>        -0.0778
      6 C6          0.0021   -0.0041    0.0020 C.ar      1 <0>        -0.1107
      7 C7         -1.2928   -0.7750    0.0103 C.3       1 <0>         0.3343
      8 H1         -2.0803   -0.2018   -0.4790 H         1 <0>         0.1017
      9 N1         -1.1197   -2.0812   -0.6493 N.pl3     1 <0>        -0.6715
     10 N2         -1.4035   -3.0362    0.3380 N.2       1 <0>        -0.2979
     11 C8         -1.7086   -2.4564    1.4485 C.2       1 <0>         0.1962
     12 O1         -1.6725   -1.1051    1.3543 O.3       1 <0>        -0.3015
     13 S1         -2.1277   -3.3238    2.9238 S.3       1 <0>         0.0977
     14 C9         -2.0103   -5.0718    2.4535 C.3       1 <0>        -0.0712
     15 C10        -2.3490   -5.9354    3.6412 C.2       1 <0>         0.4402
     16 O2         -2.3276   -7.2774    3.5261 O.3       1 <0>        -0.6540
     17 N3         -2.6623   -5.3844    4.7786 N.2       1 <0>        -0.6554
     18 C11        -2.9688   -6.1658    5.8532 C.2       1 <0>         0.5194
     19 H2         -3.3748   -4.8047    7.3809 H         1 <0>         0.4253
     20 N4         -2.9855   -7.4855    5.8767 N.2       1 <0>        -0.5610
     21 C12        -3.3284   -7.9083    7.0915 C.2       1 <0>         0.1915
     22 N5         -3.5367   -6.8752    7.8646 N.2       1 <0>        -0.3747
     23 N6         -3.3051   -5.7273    7.0897 N.pl3     1 <0>        -0.5135
     24 Br1         4.0026    2.3779   -0.0240 Br        1 <0>        -0.0515
     25 H3         -0.9592    1.9053    0.0260 H         1 <0>         0.1361
     26 H4          1.1559    3.1656    0.0077 H         1 <0>         0.1356
     27 H5          3.3384   -0.5003   -0.0329 H         1 <0>         0.1348
     28 H6          1.2224   -1.7592   -0.0191 H         1 <0>         0.1348
     29 H7         -0.8642   -2.2457   -1.5705 H         1 <0>         0.4442
     30 H8         -2.7096   -5.2778    1.6432 H         1 <0>         0.1065
     31 H9         -0.9954   -5.2916    2.1221 H         1 <0>         0.1059
     32 H10        -3.4203   -8.9419    7.3909 H         1 <0>         0.1936
@<TRIPOS>BOND
     1    1    6 ar
     2    1    2 ar
     3    1   25 1
     4    2    3 ar
     5    2   26 1
     6    3    4 ar
     7    3   24 1
     8    4    5 ar
     9    4   27 1
    10    5    6 ar
    11    5   28 1
    12    6    7 1
    13    7    8 1
    14    7   12 1
    15    7    9 1
    16    9   10 1
    17    9   29 1
    18   10   11 2
    19   11   12 1
    20   11   13 1
    21   13   14 1
    22   14   15 1
    23   14   30 1
    24   14   31 1
    25   15   16 1
    26   15   17 2
    27   17   18 1
    28   18   20 2
    29   18   23 1
    30   19   23 1
    31   20   21 1
    32   21   32 1
    33   21   22 2
    34   22   23 1
@<TRIPOS>MOLECULE
ZINC55649447
   44    46     0     0     0
SMALL
USER_CHARGES

@<TRIPOS>ATOM
      1 C1          1.1336    1.2959   -0.1665 C.3       1 <0>        -0.0660
      2 C2          0.5306   -0.0778   -0.0236 C.2       1 <0>         0.0557
      3 C3         -0.4118   -0.6528   -0.8824 C.2       1 <0>        -0.2826
      4 C4         -0.7009   -1.8901   -0.4156 C.2       1 <0>         0.0856
      5 N1          0.0342   -2.0906    0.7009 N.pl3     1 <0>        -0.2877
      6 N2          0.8030   -0.9407    0.9225 N.2       1 <0>        -0.2879
      7 C5          0.0319   -3.2484    1.4947 C.ar      1 <0>        -0.0192
      8 C6          0.1547   -4.4971    0.9011 C.ar      1 <0>        -0.0466
      9 C7          0.1525   -5.6361    1.6811 C.ar      1 <0>        -0.1745
     10 C8          0.0279   -5.5338    3.0611 C.ar      1 <0>         0.3157
     11 C9         -0.0946   -4.2851    3.6566 C.ar      1 <0>        -0.2951
     12 C10        -0.0876   -3.1441    2.8760 C.ar      1 <0>         0.1767
     13 F1         -0.2014   -1.9287    3.4547 F         1 <0>        -0.1384
     14 N3          0.0253   -6.6876    3.8501 N.2       1 <0>        -1.0791
     15 S1         -0.1232   -6.5657    5.4949 S.o2      1 <0>         2.6330
     16 O1          1.0518   -5.9171    5.9618 O.2       1 <0>        -1.0295
     17 O2         -1.4258   -6.0575    5.7485 O.2       1 <0>        -1.0259
     18 C11        -0.0864   -8.2033    6.1442 C.2       1 <0>        -0.6923
     19 C12        -1.1929   -9.0343    6.3451 C.2       1 <0>        -0.0442
     20 C13        -0.7198  -10.2198    6.8662 C.2       1 <0>        -0.0791
     21 N4          0.6476  -10.1073    6.9780 N.pl3     1 <0>        -0.4089
     22 C14         1.0194   -8.8827    6.5318 C.2       1 <0>         0.1339
     23 C15         1.5511  -11.1413    7.4886 C.3       1 <0>         0.0649
     24 C16        -1.5266  -11.3880    7.2349 C.2       1 <0>         0.6021
     25 O3         -1.0011  -12.3455    7.7715 O.2       1 <0>        -0.5585
     26 N5         -2.8498  -11.4008    6.9795 N.am      1 <0>        -0.8429
     27 C17        -1.6690   -2.8681   -1.0298 C.3       1 <0>        -0.0926
     28 H1          2.0355    1.2353   -0.7756 H         1 <0>         0.0713
     29 H2          0.4148    1.9600   -0.6467 H         1 <0>         0.0723
     30 H3          1.3865    1.6861    0.8193 H         1 <0>         0.0688
     31 H4         -0.8346   -0.1910   -1.7625 H         1 <0>         0.1422
     32 H5          0.2516   -4.5777   -0.1715 H         1 <0>         0.1226
     33 H6          0.2473   -6.6074    1.2183 H         1 <0>         0.1306
     34 H7         -0.1918   -4.2054    4.7292 H         1 <0>         0.1188
     35 H8         -2.2239   -8.7928    6.1325 H         1 <0>         0.1557
     36 H9          2.0319   -8.5087    6.4941 H         1 <0>         0.1861
     37 H10         1.8021  -11.8335    6.6850 H         1 <0>         0.0785
     38 H11         2.4619  -10.6748    7.8641 H         1 <0>         0.0867
     39 H12         1.0615  -11.6848    8.2967 H         1 <0>         0.1006
     40 H13        -3.2558  -10.6706    6.4865 H         1 <0>         0.4072
     41 H14        -3.3963  -12.1403    7.2885 H         1 <0>         0.4075
     42 H15        -1.1637   -3.4389   -1.8089 H         1 <0>         0.0777
     43 H16        -2.0354   -3.5482   -0.2608 H         1 <0>         0.0773
     44 H17        -2.5081   -2.3246   -1.4640 H         1 <0>         0.0795
@<TRIPOS>BOND
     1    1    2 1
     2    1   28 1
     3    1   29 1
     4    1   30 1
     5    2    6 2
     6    2    3 1
     7    3    4 2
     8    3   31 1
     9    4    5 1
    10    4   27 1
    11    5    6 1
    12    5    7 1
    13    7   12 ar
    14    7    8 ar
    15    8    9 ar
    16    8   32 1
    17    9   10 ar
    18    9   33 1
    19   10   11 ar
    20   10   14 1
    21   11   12 ar
    22   11   34 1
    23   12   13 1
    24   14   15 1
    25   15   16 2
    26   15   17 2
    27   15   18 1
    28   18   22 2
    29   18   19 1
    30   19   20 2
    31   19   35 1
    32   20   21 1
    33   20   24 1
    34   21   22 1
    35   21   23 1
    36   22   36 1
    37   23   37 1
    38   23   38 1
    39   23   39 1
    40   24   25 2
    41   24   26 am
    42   26   40 1
    43   26   41 1
    44   27   42 1
    45   27   43 1
    46   27   44 1
@<TRIPOS>MOLECULE
ZINC63142053
   30    30     0     0     0
SMALL
USER_CHARGES

@<TRIPOS>ATOM
      1 C1         -0.4161    1.7480   -0.1379 C.3       1 <0>        -0.6612
      2 S1         -0.2178   -0.0540   -0.0742 S.o2      1 <0>         2.4256
      3 O1          0.6649   -0.3716    0.9932 O.2       1 <0>        -0.9382
      4 O2         -1.5076   -0.6495   -0.1046 O.2       1 <0>        -0.9381
      5 C2          0.6205   -0.4205   -1.6405 C.3       1 <0>        -0.5940
      6 C3          0.8669   -1.9268   -1.7468 C.3       1 <0>        -0.6007
      7 S2          1.7053   -2.2934   -3.3131 S.o2      1 <0>         2.5311
      8 O3          0.8329   -2.0407   -4.4060 O.2       1 <0>        -1.0267
      9 O4          3.0225   -1.7606   -3.2996 O.2       1 <0>        -0.9934
     10 N1          1.9138   -3.9362   -3.3099 N.2       1 <0>        -1.1218
     11 C4          2.4373   -4.5781   -4.4399 C.ar      1 <0>         0.2638
     12 C5          3.7812   -4.4346   -4.7600 C.ar      1 <0>        -0.1203
     13 C6          4.2973   -5.0678   -5.8746 C.ar      1 <0>        -0.1356
     14 C7          3.4724   -5.8470   -6.6748 C.ar      1 <0>         0.1518
     15 C8          2.1288   -5.9906   -6.3550 C.ar      1 <0>        -0.1366
     16 C9          1.6136   -5.3626   -5.2370 C.ar      1 <0>        -0.0799
     17 Br1        -0.2143   -5.5650   -4.7969 Br        1 <0>        -0.0603
     18 N2          3.9952   -6.4876   -7.8044 N.pl3     1 <0>        -0.8889
     19 Br2         4.9045   -3.3724   -3.6710 Br        1 <0>        -0.0236
     20 H1          0.5641    2.2190   -0.2109 H         1 <0>         0.1289
     21 H2         -1.0143    2.0171   -1.0085 H         1 <0>         0.1289
     22 H3         -0.9173    2.0906    0.7673 H         1 <0>         0.1286
     23 H4         -0.0046   -0.0951   -2.4720 H         1 <0>         0.1388
     24 H5          1.5739    0.1068   -1.6745 H         1 <0>         0.1401
     25 H6          1.4920   -2.2523   -0.9153 H         1 <0>         0.1337
     26 H7         -0.0864   -2.4542   -1.7128 H         1 <0>         0.1323
     27 H8          5.3423   -4.9562   -6.1236 H         1 <0>         0.1162
     28 H9          1.4874   -6.5967   -6.9775 H         1 <0>         0.1177
     29 H10         4.9337   -6.3871   -8.0281 H         1 <0>         0.3908
     30 H11         3.4190   -7.0320   -8.3635 H         1 <0>         0.3908
@<TRIPOS>BOND
     1    1    2 1
     2    1   20 1
     3    1   21 1
     4    1   22 1
     5    2    3 2
     6    2    4 2
     7    2    5 1
     8    5    6 1
     9    5   23 1
    10    5   24 1
    11    6    7 1
    12    6   25 1
    13    6   26 1
    14    7    8 2
    15    7    9 2
    16    7   10 1
    17   10   11 1
    18   11   16 ar
    19   11   12 ar
    20   12   13 ar
    21   12   19 1
    22   13   14 ar
    23   13   27 1
    24   14   15 ar
    25   14   18 1
    26   15   16 ar
    27   15   28 1
    28   16   17 1
    29   18   29 1
    30   18   30 1
@<TRIPOS>MOLECULE
ZINC63425406
   41    43     0     0     0
SMALL
USER_CHARGES

@<TRIPOS>ATOM
      1 C1         -0.0173    1.4248    0.0099 C.3       1 <0>         0.0348
      2 O1          0.0021   -0.0041    0.0020 O.3       1 <0>        -0.3693
      3 C2          0.5984   -0.5997   -1.0427 C.2       1 <0>         0.4536
      4 O2          1.0877    0.0699   -1.9214 O.2       1 <0>        -0.4515
      5 C3          0.6575   -2.1036   -1.1196 C.3       1 <0>         0.0904
      6 H1         -0.3550   -2.5070   -1.1292 H         1 <0>         0.0656
      7 C4          1.4117   -2.6471    0.0956 C.3       1 <0>        -0.0736
      8 C5          1.3651   -4.1534    0.0832 C.2       1 <0>         0.0780
      9 C6          2.3026   -4.9919   -0.4141 C.ar      1 <0>        -0.1598
     10 C7          3.5962   -4.7614   -1.0683 C.ar      1 <0>         0.0503
     11 C8          4.3285   -5.8261   -1.4671 C.ar      1 <0>        -0.1794
     12 C9          3.8840   -7.1411   -1.2723 C.ar      1 <0>         0.0730
     13 C10         2.7070   -7.4325   -0.6790 C.ar      1 <0>        -0.2341
     14 C11         1.8560   -6.3898   -0.2196 C.ar      1 <0>         0.3254
     15 N1          0.6878   -6.4146    0.3747 N.pl3     1 <0>        -0.6057
     16 C12         0.2635   -5.0335    0.6302 C.3       1 <0>         0.0673
     17 N2          1.3539   -2.5028   -2.3452 N.2       1 <0>        -0.5296
     18 C13         0.7441   -3.2289   -3.2305 C.2       1 <0>         0.2850
     19 C14         1.4420   -3.6290   -4.4588 C.2       1 <0>        -0.4192
     20 C15         0.7994   -4.4059   -5.4260 C.2       1 <0>         0.4951
     21 N3          1.4867   -4.7528   -6.5491 N.pl3     1 <0>        -0.6299
     22 C16         2.7591   -4.3523   -6.7183 C.2       1 <0>         0.5427
     23 N4          3.3872   -3.6118   -5.8074 N.2       1 <0>        -0.6064
     24 C17         2.7810   -3.2318   -4.6943 C.2       1 <0>         0.4936
     25 O3          3.4363   -2.4754   -3.7865 O.3       1 <0>        -0.6302
     26 S1          3.5937   -4.8070   -8.1422 S.2       1 <0>        -0.7891
     27 O4         -0.4757   -4.8045   -5.2505 O.3       1 <0>        -0.6957
     28 H2          1.0053    1.8021    0.0021 H         1 <0>         0.0594
     29 H3         -0.5445    1.7859   -0.8732 H         1 <0>         0.0579
     30 H4         -0.5275    1.7763    0.9067 H         1 <0>         0.0972
     31 H5          2.4492   -2.3154    0.0575 H         1 <0>         0.1187
     32 H6          0.9450   -2.2767    1.0083 H         1 <0>         0.1123
     33 H7          3.9577   -3.7564   -1.2290 H         1 <0>         0.1719
     34 H8          5.2807   -5.6589   -1.9487 H         1 <0>         0.1547
     35 H9          4.5086   -7.9544   -1.6110 H         1 <0>         0.1531
     36 H10         2.4098   -8.4632   -0.5529 H         1 <0>         0.1512
     37 H11         0.1459   -4.8664    1.7009 H         1 <0>         0.1634
     38 H12        -0.6733   -4.8285    0.1122 H         1 <0>         0.1634
     39 H13        -0.2769   -3.5390   -3.0641 H         1 <0>         0.0652
     40 H14         0.1891   -7.2126    0.6099 H         1 <0>         0.4473
     41 H15         1.0561   -5.2921   -7.2308 H         1 <0>         0.4029
@<TRIPOS>BOND
     1    1    2 1
     2    1   28 1
     3    1   29 1
     4    1   30 1
     5    2    3 1
     6    3    4 2
     7    3    5 1
     8    5    6 1
     9    5    7 1
    10    5   17 1
    11    7    8 1
    12    7   31 1
    13    7   32 1
    14    8   16 1
    15    8    9 2
    16    9   14 ar
    17    9   10 ar
    18   10   11 ar
    19   10   33 1
    20   11   12 ar
    21   11   34 1
    22   12   13 ar
    23   12   35 1
    24   13   14 ar
    25   13   36 1
    26   14   15 2
    27   15   16 1
    28   15   40 1
    29   16   37 1
    30   16   38 1
    31   17   18 2
    32   18   19 1
    33   18   39 1
    34   19   24 1
    35   19   20 2
    36   20   21 1
    37   20   27 1
    38   21   22 1
    39   21   41 1
    40   22   23 1
    41   22   26 2
    42   23   24 2
    43   24   25 1
@<TRIPOS>MOLECULE
ZINC02125042
   59    63     0     0     0
SMALL
USER_CHARGES
2-[2-[(4-fluorophenyl)-methyl-oxo-BLAHyl]acetyl]amino-3-(4-hydroxyphenyl)-propanoic acid
@<TRIPOS>ATOM
      1 C1          0.6939    3.6227   -1.1746 C.3       1 <0>        -0.1330
      2 C2         -0.4058    2.7785   -1.7654 C.2       1 <0>         0.0387
      3 C3         -1.1414    3.2238   -2.9526 C.ar      1 <0>        -0.1440
      4 C4         -0.8403    4.4413   -3.5643 C.ar      1 <0>        -0.0031
      5 C5         -1.5545    4.8326   -4.6855 C.ar      1 <0>        -0.1379
      6 C6         -2.5750    4.0130   -5.2063 C.ar      1 <0>         0.1048
      7 C7         -2.8694    2.8036   -4.5934 C.ar      1 <0>        -0.1284
      8 C8         -2.1627    2.4024   -3.4729 C.ar      1 <0>         0.1742
      9 O1         -2.4452    1.2246   -2.8719 O.3       1 <0>        -0.2694
     10 C9         -1.7711    0.8104   -1.7883 C.2       1 <0>         0.5256
     11 O2         -2.0587   -0.2605   -1.2849 O.2       1 <0>        -0.4518
     12 C10        -0.7416    1.5850   -1.2129 C.2       1 <0>        -0.1914
     13 C11        -0.0127    1.0858    0.0080 C.3       1 <0>        -0.0860
     14 C12        -0.7181    1.5718    1.2479 C.2       1 <0>         0.5226
     15 O3         -1.7145    2.2562    1.1498 O.2       1 <0>        -0.5393
     16 N1         -0.2416    1.2460    2.4658 N.am      1 <0>        -0.6978
     17 C13        -0.9273    1.7184    3.6711 C.3       1 <0>         0.1108
     18 H1         -2.0023    1.7415    3.4921 H         1 <0>         0.0892
     19 C14        -0.6242    0.7720    4.8344 C.3       1 <0>        -0.0747
     20 C15        -1.2145   -0.5842    4.5456 C.ar      1 <0>        -0.0736
     21 C16        -2.5030   -0.8769    4.9528 C.ar      1 <0>        -0.0994
     22 C17        -3.0484   -2.1174    4.6842 C.ar      1 <0>        -0.1411
     23 C18        -2.2983   -3.0735    4.0150 C.ar      1 <0>         0.0883
     24 C19        -1.0037   -2.7792    3.6124 C.ar      1 <0>        -0.1413
     25 C20        -0.4647   -1.5355    3.8788 C.ar      1 <0>        -0.1014
     26 O4         -2.8307   -4.2965    3.7545 O.3       1 <0>        -0.5005
     27 C21        -0.4450    3.1047    4.0126 C.2       1 <0>         0.4609
     28 O5          0.3862    3.6429    3.3202 O.co2     1 <0>        -0.6282
     29 O6         -3.0862    4.6427   -6.2843 O.3       1 <0>        -0.1838
     30 C22        -2.4681    5.8162   -6.5008 C.2       1 <0>         0.0285
     31 C23        -1.5120    6.0159   -5.5667 C.2       1 <0>        -0.1318
     32 C24        -0.6060    7.1839   -5.4510 C.ar      1 <0>        -0.0283
     33 C25        -0.4702    7.8454   -4.2314 C.ar      1 <0>        -0.0739
     34 C26         0.3781    8.9286   -4.1273 C.ar      1 <0>        -0.1476
     35 C27         1.0864    9.3655   -5.2349 C.ar      1 <0>         0.1006
     36 C28         0.9503    8.7148   -6.4505 C.ar      1 <0>        -0.1514
     37 C29         0.1083    7.6275   -6.5629 C.ar      1 <0>        -0.0791
     38 F1          1.9119   10.4297   -5.1295 F         1 <0>        -0.1385
     39 H2          1.6449    3.3544   -1.6345 H         1 <0>         0.0903
     40 H3          0.4840    4.6758   -1.3619 H         1 <0>         0.0805
     41 H4          0.7481    3.4486   -0.0999 H         1 <0>         0.0955
     42 H5         -0.0588    5.0725   -3.1677 H         1 <0>         0.1470
     43 H6         -3.6513    2.1738   -4.9915 H         1 <0>         0.1536
     44 H7          0.0021   -0.0041    0.0020 H         1 <0>         0.1088
     45 H8          1.0099    1.4631    0.0003 H         1 <0>         0.1093
     46 H9          0.5554    0.6986    2.5442 H         1 <0>         0.3902
     47 H10         0.4551    0.6800    4.9562 H         1 <0>         0.0731
     48 H11        -1.0605    1.1706    5.7503 H         1 <0>         0.0984
     49 H12        -3.0849   -0.1338    5.4776 H         1 <0>         0.1289
     50 H13        -4.0566   -2.3440    4.9983 H         1 <0>         0.1247
     51 H14        -0.4179   -3.5217    3.0910 H         1 <0>         0.1243
     52 H15         0.5431   -1.3059    3.5657 H         1 <0>         0.1228
     53 H16        -2.6768   -4.9490    4.4514 H         1 <0>         0.3836
     54 H17        -2.7012    6.4997   -7.3039 H         1 <0>         0.2149
     55 H18        -1.0253    7.5082   -3.3685 H         1 <0>         0.1370
     56 H19         0.4874    9.4389   -3.1817 H         1 <0>         0.1409
     57 H20         1.5038    9.0594   -7.3114 H         1 <0>         0.1380
     58 H21         0.0026    7.1211   -7.5109 H         1 <0>         0.1351
     59 O7         -0.9389    3.7417    5.0860 O.co2     1 <0>        -0.7646
@<TRIPOS>BOND
     1    1    2 1
     2    1   39 1
     3    1   40 1
     4    1   41 1
     5    2   12 2
     6    2    3 1
     7    3    8 ar
     8    3    4 ar
     9    4    5 ar
    10    4   42 1
    11    5   31 1
    12    5    6 ar
    13    6    7 ar
    14    6   29 1
    15    7    8 ar
    16    7   43 1
    17    8    9 1
    18    9   10 1
    19   10   11 2
    20   10   12 1
    21   12   13 1
    22   13   14 1
    23   13   44 1
    24   13   45 1
    25   14   15 2
    26   14   16 am
    27   16   17 1
    28   16   46 1
    29   17   18 1
    30   17   19 1
    31   17   27 1
    32   19   20 1
    33   19   47 1
    34   19   48 1
    35   20   25 ar
    36   20   21 ar
    37   21   22 ar
    38   21   49 1
    39   22   23 ar
    40   22   50 1
    41   23   24 ar
    42   23   26 1
    43   24   25 ar
    44   24   51 1
    45   25   52 1
    46   26   53 1
    47   27   28 2
    48   27   59 1
    49   29   30 1
    50   30   31 2
    51   30   54 1
    52   31   32 1
    53   32   37 ar
    54   32   33 ar
    55   33   34 ar
    56   33   55 1
    57   34   35 ar
    58   34   56 1
    59   35   36 ar
    60   35   38 1
    61   36   37 ar
    62   36   57 1
    63   37   58 1
@<TRIPOS>MOLECULE
ZINC30828752
   61    64     0     0     0
SMALL
USER_CHARGES
N-[4-[(4,6-dimethylpyrimidin-2-yl)sulfamoyl]phenyl]-3-nitro-4-(1-piperidyl)benzamide
@<TRIPOS>ATOM
      1 C1          2.4128    5.2673   -0.7085 C.3       1 <0>        -0.1051
      2 C2          1.2737    5.3208    0.2768 C.ar      1 <0>         0.2120
      3 C3          1.1332    6.4054    1.1283 C.ar      1 <0>        -0.3308
      4 C4          0.0713    6.4152    2.0191 C.ar      1 <0>         0.2001
      5 N1         -0.7712    5.3956    2.0300 N.ar      1 <0>        -0.5517
      6 C5         -0.6086    4.3737    1.2025 C.ar      1 <0>         0.5908
      7 N2          0.3988    4.3309    0.3429 N.ar      1 <0>        -0.6128
      8 N3         -1.5090    3.3233    1.2409 N.2       1 <0>        -1.0115
      9 S1         -1.5595    2.2301   -0.0020 S.o2      1 <0>         2.6238
     10 O1         -1.6107    2.9848   -1.2049 O.2       1 <0>        -1.0213
     11 O2         -2.5523    1.2726    0.3394 O.2       1 <0>        -0.9972
     12 C6         -0.0179    1.3768   -0.0081 C.ar      1 <0>        -0.6600
     13 C7          1.0371    1.8635   -0.7581 C.ar      1 <0>         0.0314
     14 C8          2.2449    1.1939   -0.7696 C.ar      1 <0>        -0.1548
     15 C9          2.3994    0.0306   -0.0268 C.ar      1 <0>         0.1729
     16 C10         1.3378   -0.4555    0.7254 C.ar      1 <0>        -0.1774
     17 C11         0.1326    0.2188    0.7326 C.ar      1 <0>        -0.0108
     18 N4          3.6210   -0.6501   -0.0366 N.am      1 <0>        -0.6758
     19 C12         4.7749    0.0377   -0.1457 C.2       1 <0>         0.5572
     20 O3          4.7609    1.2537   -0.1388 O.2       1 <0>        -0.4991
     21 C13         6.0546   -0.6843   -0.2735 C.ar      1 <0>        -0.1293
     22 C14         6.0730   -2.0824   -0.2758 C.ar      1 <0>        -0.0286
     23 C15         7.2678   -2.7530   -0.4014 C.ar      1 <0>        -0.1584
     24 C16         8.4591   -2.0409   -0.5141 C.ar      1 <0>         0.1825
     25 C17         8.4447   -0.6490   -0.5058 C.ar      1 <0>        -0.0328
     26 C18         7.2523    0.0277   -0.3867 C.ar      1 <0>         0.0072
     27 N5          9.7134    0.1041   -0.6258 N.pl3     1 <0>         0.0275
     28 O4          9.7016    1.3220   -0.6191 O.2       1 <0>        -0.1876
     29 O5         10.7691   -0.4941   -0.7312 O.3       1 <0>        -0.0958
     30 N6          9.6655   -2.7216   -0.6355 N.pl3     1 <0>        -0.4975
     31 C19         9.7110   -3.4933   -1.8840 C.3       1 <0>         0.0622
     32 C20        11.1014   -4.1095   -2.0540 C.3       1 <0>        -0.1174
     33 C21        11.4010   -5.0187   -0.8590 C.3       1 <0>        -0.1224
     34 C22        11.2996   -4.2016    0.4320 C.3       1 <0>        -0.1169
     35 C23         9.9034   -3.5827    0.5300 C.3       1 <0>         0.0608
     36 C24        -0.1213    7.5739    2.9633 C.3       1 <0>        -0.1007
     37 H1          3.0253    6.1757   -0.6105 H         1 <0>         0.0681
     38 H2          2.0109    5.2045   -1.7305 H         1 <0>         0.0753
     39 H3          3.0336    4.3826   -0.5036 H         1 <0>         0.0772
     40 H4          1.8361    7.2248    1.0986 H         1 <0>         0.1214
     41 H5          0.9162    2.7680   -1.3357 H         1 <0>         0.1474
     42 H6          3.0686    1.5747   -1.3553 H         1 <0>         0.1309
     43 H7          1.4549   -1.3597    1.3044 H         1 <0>         0.1231
     44 H8         -0.6931   -0.1585    1.3176 H         1 <0>         0.1356
     45 H9          3.6401   -1.7469    0.0447 H         1 <0>         0.4273
     46 H10         5.1498   -2.6354   -0.1840 H         1 <0>         0.1464
     47 H11         7.2822   -3.8329   -0.4081 H         1 <0>         0.1506
     48 H12         7.2418    1.1076   -0.3804 H         1 <0>         0.1708
     49 H13         8.9576   -4.2939   -1.8478 H         1 <0>         0.0423
     50 H14         9.4988   -2.8282   -2.7341 H         1 <0>         0.0772
     51 H15        11.1300   -4.6994   -2.9820 H         1 <0>         0.0715
     52 H16        11.8537   -3.3086   -2.1053 H         1 <0>         0.0819
     53 H17        10.6723   -5.8423   -0.8332 H         1 <0>         0.0583
     54 H18        12.4163   -5.4304   -0.9569 H         1 <0>         0.0688
     55 H19        11.4726   -4.8592    1.2967 H         1 <0>         0.0715
     56 H20        12.0564   -3.4034    0.4212 H         1 <0>         0.0814
     57 H21         9.8323   -2.9831    1.4495 H         1 <0>         0.0776
     58 H22         9.1490   -4.3829    0.5548 H         1 <0>         0.0425
     59 H23        -1.0116    7.3965    3.5846 H         1 <0>         0.0746
     60 H24        -0.2564    8.4997    2.3848 H         1 <0>         0.0728
     61 H25         0.7635    7.6711    3.6096 H         1 <0>         0.0722
@<TRIPOS>BOND
     1    1    2 1
     2    1   37 1
     3    1   38 1
     4    1   39 1
     5    2    7 ar
     6    2    3 ar
     7    3    4 ar
     8    3   40 1
     9    4    5 ar
    10    4   36 1
    11    5    6 ar
    12    6    7 ar
    13    6    8 1
    14    8    9 1
    15    9   10 2
    16    9   11 2
    17    9   12 1
    18   12   17 ar
    19   12   13 ar
    20   13   14 ar
    21   13   41 1
    22   14   15 ar
    23   14   42 1
    24   15   16 ar
    25   15   18 1
    26   16   17 ar
    27   16   43 1
    28   17   44 1
    29   18   19 am
    30   18   45 1
    31   19   20 2
    32   19   21 1
    33   21   26 ar
    34   21   22 ar
    35   22   23 ar
    36   22   46 1
    37   23   24 ar
    38   23   47 1
    39   24   25 ar
    40   24   30 1
    41   25   26 ar
    42   25   27 1
    43   26   48 1
    44   27   28 2
    45   27   29 1
    46   30   35 1
    47   30   31 1
    48   31   32 1
    49   31   49 1
    50   31   50 1
    51   32   33 1
    52   32   51 1
    53   32   52 1
    54   33   34 1
    55   33   53 1
    56   33   54 1
    57   34   35 1
    58   34   55 1
    59   34   56 1
    60   35   57 1
    61   35   58 1
    62   36   59 1
    63   36   60 1
    64   36   61 1
@<TRIPOS>MOLECULE
ZINC36071717
   68    71     0     0     0
SMALL
USER_CHARGES

@<TRIPOS>ATOM
      1 C1         -0.2653    1.9275    0.0187 C.3       1 <0>        -0.0914
      2 C2         -0.1174    0.4369    0.1839 C.2       1 <0>         0.3096
      3 C3         -1.2434   -0.3562    0.2949 C.2       1 <0>        -0.3803
      4 C4         -1.0429   -1.8463    0.4585 C.3       1 <0>         0.2707
      5 H1         -1.5248   -2.1496    1.3880 H         1 <0>         0.0733
      6 N1          0.3591   -2.3414    0.4869 N.pl3     1 <0>        -0.5159
      7 C5          0.7756   -3.6505    0.6254 C.2       1 <0>         0.2319
      8 C6          2.1057   -3.8885    0.6259 C.2       1 <0>        -0.3114
      9 S1          2.7737   -2.2485    0.4288 S.3       1 <0>         0.1185
     10 C7          1.3329   -1.3904    0.3610 C.2       1 <0>         0.3381
     11 N2          1.0895   -0.1041    0.2160 N.2       1 <0>        -0.5879
     12 C8         -0.1937   -4.7464    0.7679 C.2       1 <0>        -0.4717
     13 C9          0.2366   -5.9975    1.0199 C.2       1 <0>         0.5021
     14 O1          1.5648   -6.2669    1.0365 O.3       1 <0>        -0.7049
     15 N3         -0.6779   -7.0087    1.2619 N.pl3     1 <0>        -0.7493
     16 C10        -0.2098   -8.3695    1.5360 C.3       1 <0>         0.1346
     17 C11        -1.4131   -9.2860    1.7667 C.3       1 <0>         0.0679
     18 H2         -2.0482   -8.8720    2.5499 H         1 <0>         0.0810
     19 C12        -0.9285  -10.6938    2.1749 C.3       1 <0>        -0.1475
     20 C13        -1.9214  -11.6167    1.4170 C.3       1 <0>        -0.1557
     21 C14        -2.1627  -10.7927    0.1271 C.3       1 <0>         0.0492
     22 O2         -2.1623   -9.4190    0.5532 O.3       1 <0>        -0.3726
     23 C15        -1.7554   -2.5375   -0.6754 C.ar      1 <0>        -0.0504
     24 C16        -2.9078   -3.2611   -0.4292 C.ar      1 <0>        -0.0975
     25 C17        -3.5636   -3.8962   -1.4668 C.ar      1 <0>        -0.0911
     26 C18        -3.0700   -3.8112   -2.7558 C.ar      1 <0>        -0.1977
     27 C19        -1.9162   -3.0880   -3.0093 C.ar      1 <0>         0.0961
     28 C20        -1.2591   -2.4432   -1.9652 C.ar      1 <0>         0.0911
     29 O3         -0.1290   -1.7273   -2.2099 O.3       1 <0>        -0.3172
     30 C21         1.0896   -2.4625   -2.3387 C.3       1 <0>         0.0226
     31 O4         -1.4295   -3.0034   -4.2764 O.3       1 <0>        -0.3103
     32 C22        -2.1590   -3.6854   -5.2984 C.3       1 <0>         0.0287
     33 C23        -2.5273    0.2012    0.2578 C.2       1 <0>         0.5354
     34 O5         -2.6653    1.4115    0.2183 O.2       1 <0>        -0.5508
     35 O6         -3.6134   -0.6029    0.2656 O.3       1 <0>        -0.3471
     36 C24        -4.8875    0.0263    0.1143 C.3       1 <0>         0.0806
     37 C25        -5.2755    0.0430   -1.3656 C.3       1 <0>        -0.1638
     38 C26        -5.9384   -0.7522    0.9083 C.3       1 <0>        -0.1470
     39 H3          0.7215    2.3844   -0.0568 H         1 <0>         0.0627
     40 H4         -0.8334    2.1381   -0.8874 H         1 <0>         0.0832
     41 H5         -0.7909    2.3382    0.8808 H         1 <0>         0.0868
     42 H6          2.6284   -4.8288    0.7215 H         1 <0>         0.2362
     43 H7         -1.2509   -4.5483    0.6705 H         1 <0>         0.0925
     44 H8         -1.6285   -6.8159    1.2500 H         1 <0>         0.3875
     45 H9          0.3664   -8.7337    0.6854 H         1 <0>         0.0530
     46 H10         0.4194   -8.3650    2.4260 H         1 <0>         0.0595
     47 H11         0.0941  -10.8648    1.8384 H         1 <0>         0.0813
     48 H12        -1.0124  -10.8357    3.2524 H         1 <0>         0.0822
     49 H13        -1.4657  -12.5801    1.1882 H         1 <0>         0.0809
     50 H14        -2.8460  -11.7452    1.9797 H         1 <0>         0.0761
     51 H15        -1.3599  -10.9676   -0.5892 H         1 <0>         0.0586
     52 H16        -3.1260  -11.0514   -0.3124 H         1 <0>         0.0812
     53 H17        -3.2960   -3.3304    0.5763 H         1 <0>         0.1236
     54 H18        -4.4633   -4.4605   -1.2705 H         1 <0>         0.1217
     55 H19        -3.5840   -4.3091   -3.5647 H         1 <0>         0.1237
     56 H20         1.9284   -1.7686   -2.3938 H         1 <0>         0.0855
     57 H21         1.2136   -3.1146   -1.4741 H         1 <0>         0.0614
     58 H22         1.0562   -3.0650   -3.2464 H         1 <0>         0.0408
     59 H23        -1.6644   -3.5372   -6.2584 H         1 <0>         0.0950
     60 H24        -2.1960   -4.7504   -5.0694 H         1 <0>         0.0522
     61 H25        -3.1731   -3.2889   -5.3472 H         1 <0>         0.0511
     62 H26        -4.8343    1.0491    0.4875 H         1 <0>         0.0787
     63 H27        -4.4846    0.5216   -1.9432 H         1 <0>         0.0574
     64 H28        -5.4138   -0.9796   -1.7165 H         1 <0>         0.0612
     65 H29        -6.2045    0.5991   -1.4914 H         1 <0>         0.0631
     66 H30        -5.7092   -0.6906    1.9721 H         1 <0>         0.0593
     67 H31        -6.9238   -0.3246    0.7235 H         1 <0>         0.0687
     68 H32        -5.9307   -1.7962    0.5949 H         1 <0>         0.0650
@<TRIPOS>BOND
     1    1    2 1
     2    1   39 1
     3    1   40 1
     4    1   41 1
     5    2   11 1
     6    2    3 2
     7    3    4 1
     8    3   33 1
     9    4    5 1
    10    4    6 1
    11    4   23 1
    12    6   10 1
    13    6    7 1
    14    7    8 2
    15    7   12 1
    16    8    9 1
    17    8   42 1
    18    9   10 1
    19   10   11 2
    20   12   13 2
    21   12   43 1
    22   13   14 1
    23   13   15 1
    24   15   16 1
    25   15   44 1
    26   16   17 1
    27   16   45 1
    28   16   46 1
    29   17   18 1
    30   17   22 1
    31   17   19 1
    32   19   20 1
    33   19   47 1
    34   19   48 1
    35   20   21 1
    36   20   49 1
    37   20   50 1
    38   21   22 1
    39   21   51 1
    40   21   52 1
    41   23   28 ar
    42   23   24 ar
    43   24   25 ar
    44   24   53 1
    45   25   26 ar
    46   25   54 1
    47   26   27 ar
    48   26   55 1
    49   27   28 ar
    50   27   31 1
    51   28   29 1
    52   29   30 1
    53   30   56 1
    54   30   57 1
    55   30   58 1
    56   31   32 1
    57   32   59 1
    58   32   60 1
    59   32   61 1
    60   33   34 2
    61   33   35 1
    62   35   36 1
    63   36   37 1
    64   36   38 1
    65   36   62 1
    66   37   63 1
    67   37   64 1
    68   37   65 1
    69   38   66 1
    70   38   67 1
    71   38   68 1
@<TRIPOS>MOLECULE
ZINC39926972
   54    56     0     0     0
SMALL
USER_CHARGES

@<TRIPOS>ATOM
      1 C1          1.3841    6.8993   -4.8175 C.3       1 <0>        -0.1322
      2 C2          1.2769    7.0794   -6.3099 C.2       1 <0>         0.1195
      3 C3          1.1329    6.0270   -7.1248 C.2       1 <0>        -0.3416
      4 C4          1.0352    6.2915   -8.5778 C.2       1 <0>         0.2924
      5 N1          0.8939    5.3066   -9.4269 N.2       1 <0>        -0.5416
      6 C5          0.8336    4.0398   -9.0149 C.2       1 <0>         0.4023
      7 N2          0.9104    3.6888   -7.7428 N.2       1 <0>        -0.6448
      8 C6          1.0553    4.5755   -6.7586 C.2       1 <0>         0.5667
      9 O1          1.1232    4.2166   -5.5947 O.2       1 <0>        -0.4809
     10 S1          0.6418    2.7728  -10.2243 S.3       1 <0>         0.1156
     11 C7          0.6073    1.2409   -9.2534 C.3       1 <0>        -0.1604
     12 C8          0.4451    0.0630  -10.1792 C.2       1 <0>         0.5398
     13 O2          0.3610    0.2395  -11.3762 O.2       1 <0>        -0.4952
     14 N3          0.3933   -1.1867   -9.6770 N.am      1 <0>        -0.6717
     15 C9          0.1429   -2.2715  -10.5246 C.ar      1 <0>         0.2058
     16 C10        -0.6158   -3.3445  -10.0759 C.ar      1 <0>        -0.1645
     17 C11        -0.8612   -4.4138  -10.9150 C.ar      1 <0>         0.0005
     18 C12        -0.3521   -4.4166  -12.2007 C.ar      1 <0>        -0.6935
     19 C13         0.4042   -3.3498  -12.6504 C.ar      1 <0>         0.0003
     20 C14         0.6479   -2.2748  -11.8183 C.ar      1 <0>        -0.1416
     21 S2         -0.6674   -5.7826  -13.2680 S.o2      1 <0>         2.6967
     22 O3          0.1793   -5.6194  -14.3975 O.2       1 <0>        -0.9538
     23 O4         -0.6375   -6.9481  -12.4556 O.2       1 <0>        -0.9625
     24 N4         -2.2224   -5.6273  -13.8158 N.pl3     1 <0>        -1.1085
     25 C15        -2.5468   -4.6127  -14.8216 C.3       1 <0>         0.1762
     26 C16        -1.8693   -4.9722  -16.1455 C.3       1 <0>        -0.1889
     27 C17        -4.0627   -4.5599  -15.0223 C.3       1 <0>        -0.1502
     28 C18        -2.0472   -3.2465  -14.3476 C.3       1 <0>        -0.1891
     29 S3          1.1538    8.0569   -8.7229 S.3       1 <0>         0.0452
     30 C19         1.3220    8.4548   -6.9355 C.3       1 <0>        -0.1443
     31 H1          2.2748    8.9442   -6.7339 H         1 <0>         0.1581
     32 C20         0.1708    9.3025   -6.4588 C.2       1 <0>         0.5292
     33 O5          0.3640   10.4571   -6.1183 O.co2     1 <0>        -0.6493
     34 O6         -0.9538    8.8336   -6.4137 O.co2     1 <0>        -0.6487
     35 H2          0.3880    6.9267   -4.3757 H         1 <0>         0.1056
     36 H3          1.8517    5.9390   -4.6001 H         1 <0>         0.1007
     37 H4          1.9902    7.7020   -4.3973 H         1 <0>         0.0826
     38 H5          1.5402    1.1413   -8.6986 H         1 <0>         0.1342
     39 H6         -0.2291    1.2721   -8.5551 H         1 <0>         0.1347
     40 H7          0.5297   -1.3341   -8.7280 H         1 <0>         0.4203
     41 H8         -1.0134   -3.3431   -9.0717 H         1 <0>         0.1376
     42 H9         -1.4509   -5.2487  -10.5664 H         1 <0>         0.1396
     43 H10         0.8006   -3.3552  -13.6550 H         1 <0>         0.1478
     44 H11         1.2343   -1.4396  -12.1718 H         1 <0>         0.1510
     45 H12        -2.9185   -6.2080  -13.4707 H         1 <0>         0.4173
     46 H13        -2.2371   -5.9383  -16.4913 H         1 <0>         0.0600
     47 H14        -2.0977   -4.2091  -16.8895 H         1 <0>         0.0677
     48 H15        -0.7906   -5.0255  -15.9989 H         1 <0>         0.0977
     49 H16        -4.5453   -4.3038  -14.0791 H         1 <0>         0.0633
     50 H17        -4.3040   -3.8051  -15.7707 H         1 <0>         0.0731
     51 H18        -4.4186   -5.5332  -15.3600 H         1 <0>         0.0633
     52 H19        -0.9595   -3.2154  -14.4111 H         1 <0>         0.0684
     53 H20        -2.4705   -2.4656  -14.9793 H         1 <0>         0.0807
     54 H21        -2.3556   -3.0853  -13.3146 H         1 <0>         0.0694
@<TRIPOS>BOND
     1    1    2 1
     2    1   35 1
     3    1   36 1
     4    1   37 1
     5    2   30 1
     6    2    3 2
     7    3    8 1
     8    3    4 1
     9    4    5 2
    10    4   29 1
    11    5    6 1
    12    6    7 2
    13    6   10 1
    14    7    8 1
    15    8    9 2
    16   10   11 1
    17   11   12 1
    18   11   38 1
    19   11   39 1
    20   12   13 2
    21   12   14 am
    22   14   15 1
    23   14   40 1
    24   15   20 ar
    25   15   16 ar
    26   16   17 ar
    27   16   41 1
    28   17   18 ar
    29   17   42 1
    30   18   19 ar
    31   18   21 1
    32   19   20 ar
    33   19   43 1
    34   20   44 1
    35   21   22 2
    36   21   23 2
    37   21   24 1
    38   24   25 1
    39   24   45 1
    40   25   26 1
    41   25   27 1
    42   25   28 1
    43   26   46 1
    44   26   47 1
    45   26   48 1
    46   27   49 1
    47   27   50 1
    48   27   51 1
    49   28   52 1
    50   28   53 1
    51   28   54 1
    52   29   30 1
    53   30   31 1
    54   30   32 1
    55   32   33 2
    56   32   34 1
@<TRIPOS>MOLECULE
ZINC43740141
   86    90     0     0     0
SMALL
USER_CHARGES

@<TRIPOS>ATOM
      1 C1         -0.0376    1.3815    1.1628 C.3       1 <0>        -0.1439
      2 C2         -0.0236   -0.1444    1.0509 C.3       1 <0>        -0.0495
      3 C3          0.7005   -0.5405   -0.2166 C.3       1 <0>        -0.0933
      4 C4          0.8078   -2.0598   -0.3134 C.3       1 <0>        -0.1400
      5 C5          1.6041   -2.5847    0.8906 C.3       1 <0>        -0.0574
      6 H1          2.5983   -2.1378    0.8943 H         1 <0>         0.0635
      7 C6          0.8821   -2.2309    2.1782 C.3       1 <0>        -0.0675
      8 H2         -0.0850   -2.7338    2.1815 H         1 <0>         0.0782
      9 C7          0.6282   -0.7327    2.3109 C.3       1 <0>        -0.0732
     10 H3          1.5266   -0.1863    2.5981 H         1 <0>         0.0795
     11 C8         -0.5201   -0.5894    3.3545 C.3       1 <0>        -0.1231
     12 C9         -1.7927   -0.9420    2.5533 C.3       1 <0>        -0.1568
     13 C10        -1.4683   -0.6606    1.0718 C.3       1 <0>         0.1076
     14 H4         -2.1443    0.0974    0.6762 H         1 <0>         0.0547
     15 O1         -1.5732   -1.8633    0.3071 O.3       1 <0>        -0.5385
     16 C11         1.6545   -2.6622    3.4225 C.3       1 <0>        -0.1107
     17 C12         2.4786   -3.9209    3.1964 C.3       1 <0>        -0.0830
     18 C13         1.8525   -4.7370    2.0931 C.2       1 <0>        -0.0541
     19 C14         1.4317   -5.9717    2.3227 C.2       1 <0>        -0.1214
     20 C15         0.8089   -6.7681    1.2580 C.2       1 <0>         0.1713
     21 N1          0.4283   -7.9835    1.4950 N.2       1 <0>        -0.3480
     22 O2         -0.1722   -8.7505    0.4674 O.3       1 <0>        -0.2047
     23 C16        -0.5420  -10.0713    0.8684 C.3       1 <0>         0.0596
     24 C17        -1.1678  -10.7934   -0.2969 C.2       1 <0>         0.5270
     25 O3         -1.2857  -10.2322   -1.3656 O.2       1 <0>        -0.5064
     26 N2         -1.5966  -12.0628   -0.1515 N.am      1 <0>        -0.7056
     27 C18        -2.3054  -12.7267   -1.2484 C.3       1 <0>         0.1733
     28 H5         -2.2917  -12.0862   -2.1302 H         1 <0>         0.1031
     29 C19        -1.6164  -14.0541   -1.5713 C.3       1 <0>        -0.1981
     30 C20        -0.2345  -13.7849   -2.1088 C.2       1 <0>         0.4869
     31 O4          0.1239  -12.6395   -2.3232 O.co2     1 <0>        -0.6758
     32 O5          0.5253  -14.7127   -2.3292 O.co2     1 <0>        -0.7136
     33 C21        -3.7539  -12.9918   -0.8331 C.3       1 <0>        -0.0998
     34 H6         -3.7690  -13.6323    0.0488 H         1 <0>         0.0692
     35 C22        -4.4978  -13.6821   -1.9805 C.3       1 <0>        -0.1504
     36 C23        -5.9648  -13.8721   -1.5860 C.3       1 <0>         0.0619
     37 O6         -6.5411  -12.6022   -1.2740 O.3       1 <0>        -0.3767
     38 C24        -5.9162  -11.9313   -0.1778 C.3       1 <0>         0.1108
     39 C25        -4.4467  -11.6635   -0.5136 C.3       1 <0>        -0.1297
     40 C26        -6.0002  -12.8092    1.0725 C.3       1 <0>        -0.1773
     41 C27        -6.6305  -10.6034    0.0819 C.3       1 <0>        -0.1359
     42 C28         0.6125   -6.1686   -0.1122 C.3       1 <0>        -0.1203
     43 C29         0.4817   -4.6478    0.0261 C.3       1 <0>        -0.0989
     44 C30         1.7237   -4.1048    0.7199 C.3       1 <0>        -0.0228
     45 C31         2.9687   -4.4283   -0.1085 C.3       1 <0>        -0.1402
     46 H7          0.9847    1.7486    1.2531 H         1 <0>         0.0587
     47 H8         -0.4990    1.8069    0.2716 H         1 <0>         0.0547
     48 H9         -0.6085    1.6759    2.0434 H         1 <0>         0.0560
     49 H10         0.1517   -0.1620   -1.0789 H         1 <0>         0.0568
     50 H11         1.7010   -0.1079   -0.2108 H         1 <0>         0.0512
     51 H12        -0.1907   -2.4968   -0.3085 H         1 <0>         0.1305
     52 H13         1.3211   -2.3309   -1.2360 H         1 <0>         0.0517
     53 H14        -0.3793   -1.2905    4.1772 H         1 <0>         0.0685
     54 H15        -0.5734    0.4336    3.7269 H         1 <0>         0.0626
     55 H16        -2.0399   -1.9949    2.6885 H         1 <0>         0.0737
     56 H17        -2.6246   -0.3174    2.8790 H         1 <0>         0.0630
     57 H18        -2.4645   -2.2377    0.2832 H         1 <0>         0.3616
     58 H19         2.3220   -1.8534    3.7200 H         1 <0>         0.0611
     59 H20         0.9460   -2.8459    4.2302 H         1 <0>         0.0601
     60 H21         3.4942   -3.6446    2.9129 H         1 <0>         0.0767
     61 H22         2.5040   -4.5086    4.1140 H         1 <0>         0.0712
     62 H23         1.5487   -6.3991    3.3076 H         1 <0>         0.1240
     63 H24         0.3450  -10.6128    1.1974 H         1 <0>         0.0814
     64 H25        -1.2582  -10.0150    1.6881 H         1 <0>         0.0769
     65 H26        -1.4360  -12.5368    0.6794 H         1 <0>         0.3889
     66 H27        -1.5431  -14.6553   -0.6651 H         1 <0>         0.0555
     67 H28        -2.1984  -14.5931   -2.3189 H         1 <0>         0.0699
     68 H29        -4.4387  -13.0644   -2.8766 H         1 <0>         0.0737
     69 H30        -4.0444  -14.6538   -2.1761 H         1 <0>         0.0793
     70 H31        -6.5086  -14.3242   -2.4154 H         1 <0>         0.0903
     71 H32        -6.0253  -14.5229   -0.7137 H         1 <0>         0.0500
     72 H33        -3.9567  -11.1930    0.3389 H         1 <0>         0.0682
     73 H34        -4.3865  -11.0039   -1.3792 H         1 <0>         0.0719
     74 H35        -5.4909  -13.7549    0.8873 H         1 <0>         0.0638
     75 H36        -5.5236  -12.2974    1.9085 H         1 <0>         0.0640
     76 H37        -7.0461  -13.0007    1.3123 H         1 <0>         0.0584
     77 H38        -7.6766  -10.7944    0.3214 H         1 <0>         0.0592
     78 H39        -6.1538  -10.0919    0.9180 H         1 <0>         0.0675
     79 H40        -6.5700   -9.9781   -0.8088 H         1 <0>         0.0626
     80 H41         1.4709   -6.4055   -0.7409 H         1 <0>         0.0891
     81 H42        -0.2942   -6.5736   -0.5615 H         1 <0>         0.0888
     82 H43         0.3981   -4.1971   -0.9628 H         1 <0>         0.0794
     83 H44        -0.4048   -4.4096    0.6139 H         1 <0>         0.0720
     84 H45         3.8537   -4.0492    0.4024 H         1 <0>         0.0553
     85 H46         3.0538   -5.5082   -0.2299 H         1 <0>         0.0604
     86 H47         2.8854   -3.9581   -1.0884 H         1 <0>         0.0616
@<TRIPOS>BOND
     1    1    2 1
     2    1   46 1
     3    1   47 1
     4    1   48 1
     5    2    9 1
     6    2   13 1
     7    2    3 1
     8    3    4 1
     9    3   49 1
    10    3   50 1
    11    4    5 1
    12    4   51 1
    13    4   52 1
    14    5    6 1
    15    5   44 1
    16    5    7 1
    17    7    8 1
    18    7    9 1
    19    7   16 1
    20    9   10 1
    21    9   11 1
    22   11   12 1
    23   11   53 1
    24   11   54 1
    25   12   13 1
    26   12   55 1
    27   12   56 1
    28   13   14 1
    29   13   15 1
    30   15   57 1
    31   16   17 1
    32   16   58 1
    33   16   59 1
    34   17   18 1
    35   17   60 1
    36   17   61 1
    37   18   44 1
    38   18   19 2
    39   19   20 1
    40   19   62 1
    41   20   21 2
    42   20   42 1
    43   21   22 1
    44   22   23 1
    45   23   24 1
    46   23   63 1
    47   23   64 1
    48   24   25 2
    49   24   26 am
    50   26   27 1
    51   26   65 1
    52   27   28 1
    53   27   29 1
    54   27   33 1
    55   29   30 1
    56   29   66 1
    57   29   67 1
    58   30   31 2
    59   30   32 1
    60   33   34 1
    61   33   39 1
    62   33   35 1
    63   35   36 1
    64   35   68 1
    65   35   69 1
    66   36   37 1
    67   36   70 1
    68   36   71 1
    69   37   38 1
    70   38   39 1
    71   38   40 1
    72   38   41 1
    73   39   72 1
    74   39   73 1
    75   40   74 1
    76   40   75 1
    77   40   76 1
    78   41   77 1
    79   41   78 1
    80   41   79 1
    81   42   43 1
    82   42   80 1
    83   42   81 1
    84   43   44 1
    85   43   82 1
    86   43   83 1
    87   44   45 1
    88   45   84 1
    89   45   85 1
    90   45   86 1
@<TRIPOS>MOLECULE
ZINC02974033
   49    52     0     0     0
SMALL
USER_CHARGES
N-[2-(benzylcarbamoylmethylsulfanyl)-4-oxo-quinazolin-3-yl]thiophene-2-carboxamide
@<TRIPOS>ATOM
      1 C1         -0.0559    4.2672    0.0251 C.ar      1 <0>        -0.1091
      2 C2          1.1505    3.5924    0.0100 C.ar      1 <0>        -0.1212
      3 C3          1.1693    2.2102    0.0028 C.ar      1 <0>        -0.0995
      4 C4         -0.0184    1.5028    0.0103 C.ar      1 <0>        -0.1146
      5 C5         -1.2248    2.1776    0.0197 C.ar      1 <0>        -0.0995
      6 C6         -1.2435    3.5598    0.0322 C.ar      1 <0>        -0.1214
      7 C7          0.0021   -0.0041    0.0020 C.3       1 <0>         0.1623
      8 N1          0.0219   -0.4998    1.3805 N.am      1 <0>        -0.7171
      9 C8          0.0422   -1.8260    1.6194 C.2       1 <0>         0.5320
     10 O1          0.0441   -2.6091    0.6933 O.2       1 <0>        -0.5222
     11 C9          0.0626   -2.3359    3.0374 C.3       1 <0>        -0.1496
     12 S1          0.0871   -4.1457    3.0275 S.3       1 <0>         0.0900
     13 C10         0.1078   -4.4610    4.7609 C.2       1 <0>         0.3581
     14 N2          0.1070   -3.4396    5.5815 N.2       1 <0>        -0.5186
     15 C11         0.1167   -3.6077    6.9191 C.ar      1 <0>         0.1658
     16 C12         0.1101   -2.5178    7.7948 C.ar      1 <0>        -0.1102
     17 C13         0.1268   -2.7342    9.1437 C.ar      1 <0>        -0.0664
     18 C14         0.1493   -4.0232    9.6607 C.ar      1 <0>        -0.1360
     19 C15         0.1558   -5.1094    8.8298 C.ar      1 <0>        -0.0354
     20 C16         0.1396   -4.9180    7.4490 C.ar      1 <0>        -0.1881
     21 C17         0.1460   -6.0468    6.5086 C.2       1 <0>         0.5613
     22 O2          0.1651   -7.1979    6.9039 O.2       1 <0>        -0.4829
     23 N3          0.1295   -5.7586    5.1863 N.am      1 <0>        -0.3245
     24 N4          0.1343   -6.7985    4.2476 N.am      1 <0>        -0.5245
     25 C18         1.2688   -7.4859    4.0091 C.2       1 <0>         0.6210
     26 O3          2.2891   -7.2033    4.6093 O.2       1 <0>        -0.4932
     27 C19         1.2738   -8.5740    3.0269 C.2       1 <0>        -0.2452
     28 C20         2.3205   -9.3951    2.6379 C.2       1 <0>        -0.0514
     29 C21         2.0486  -10.3464    1.6865 C.2       1 <0>        -0.1797
     30 C22         0.7909  -10.4375    1.1800 C.2       1 <0>        -0.1676
     31 S2         -0.0678   -9.1918    2.0262 S.3       1 <0>         0.1519
     32 H1         -0.0705    5.3471    0.0311 H         1 <0>         0.1246
     33 H2          2.0784    4.1450    0.0041 H         1 <0>         0.1254
     34 H3          2.1118    1.6830   -0.0091 H         1 <0>         0.1247
     35 H4         -2.1527    1.6249    0.0211 H         1 <0>         0.1247
     36 H5         -2.1860    4.0870    0.0437 H         1 <0>         0.1254
     37 H6         -0.8878   -0.3767   -0.5053 H         1 <0>         0.0809
     38 H7          0.8920   -0.3525   -0.5222 H         1 <0>         0.0807
     39 H8          0.0204    0.1265    2.1212 H         1 <0>         0.4064
     40 H9          0.9524   -1.9633    3.5448 H         1 <0>         0.1334
     41 H10        -0.8273   -1.9875    3.5616 H         1 <0>         0.1338
     42 H11         0.0927   -1.5100    7.4069 H         1 <0>         0.1415
     43 H12         0.1220   -1.8905    9.8180 H         1 <0>         0.1371
     44 H13         0.1622   -4.1693   10.7307 H         1 <0>         0.1365
     45 H14         0.1730   -6.1082    9.2403 H         1 <0>         0.1400
     46 H15        -0.6789   -7.0238    3.7692 H         1 <0>         0.4270
     47 H16         3.3070   -9.2911    3.0650 H         1 <0>         0.1511
     48 H17         2.8250  -11.0148    1.3447 H         1 <0>         0.1465
     49 H18         0.4161  -11.1229    0.4342 H         1 <0>         0.1957
@<TRIPOS>BOND
     1    1    6 ar
     2    1    2 ar
     3    1   32 1
     4    2    3 ar
     5    2   33 1
     6    3    4 ar
     7    3   34 1
     8    4    5 ar
     9    4    7 1
    10    5    6 ar
    11    5   35 1
    12    6   36 1
    13    7    8 1
    14    7   37 1
    15    7   38 1
    16    8    9 am
    17    8   39 1
    18    9   10 2
    19    9   11 1
    20   11   12 1
    21   11   40 1
    22   11   41 1
    23   12   13 1
    24   13   23 1
    25   13   14 2
    26   14   15 1
    27   15   20 ar
    28   15   16 ar
    29   16   17 ar
    30   16   42 1
    31   17   18 ar
    32   17   43 1
    33   18   19 ar
    34   18   44 1
    35   19   20 ar
    36   19   45 1
    37   20   21 1
    38   21   22 2
    39   21   23 am
    40   23   24 1
    41   24   25 am
    42   24   46 1
    43   25   26 2
    44   25   27 1
    45   27   31 1
    46   27   28 2
    47   28   29 1
    48   28   47 1
    49   29   30 2
    50   29   48 1
    51   30   31 1
    52   30   49 1
@<TRIPOS>MOLECULE
ZINC13893084
   60    62     0     0     0
SMALL
USER_CHARGES
N-cyclohexyl-2-[[(2R)-2-(methylsulfonyl-phenyl-amino)propanoyl]amino]benzamide
@<TRIPOS>ATOM
      1 C1         -3.1632    2.8255    1.4224 C.3       1 <0>        -0.1663
      2 C2         -4.0678    3.3626    0.3115 C.3       1 <0>         0.1333
      3 H1         -5.0191    3.6796    0.7389 H         1 <0>         0.1315
      4 C3         -4.3110    2.2783   -0.7065 C.2       1 <0>         0.5039
      5 O1         -4.0188    2.4616   -1.8692 O.2       1 <0>        -0.4988
      6 N1         -4.8533    1.1050   -0.3249 N.am      1 <0>        -0.6568
      7 C4         -4.9827    0.0660   -1.2435 C.ar      1 <0>         0.2138
      8 C5         -4.0244   -0.1149   -2.2318 C.ar      1 <0>        -0.1309
      9 C6         -4.1541   -1.1457   -3.1405 C.ar      1 <0>        -0.0686
     10 C7         -5.2384   -2.0059   -3.0751 C.ar      1 <0>        -0.1431
     11 C8         -6.1995   -1.8413   -2.1015 C.ar      1 <0>        -0.0661
     12 C9         -6.0789   -0.8062   -1.1712 C.ar      1 <0>        -0.1746
     13 C10        -7.1010   -0.6281   -0.1225 C.2       1 <0>         0.5677
     14 O2         -7.0503    0.3345    0.6186 O.2       1 <0>        -0.5435
     15 N2         -8.0910   -1.5324    0.0140 N.am      1 <0>        -0.7202
     16 C11        -9.1061   -1.3555    1.0555 C.3       1 <0>         0.1450
     17 C12        -8.5914   -1.9377    2.3734 C.3       1 <0>        -0.1284
     18 C13        -9.6515   -1.7529    3.4611 C.3       1 <0>        -0.1177
     19 C14       -10.9351   -2.4772    3.0504 C.3       1 <0>        -0.1230
     20 C15       -11.4498   -1.8950    1.7324 C.3       1 <0>        -0.1163
     21 C16       -10.3897   -2.0797    0.6448 C.3       1 <0>        -0.1274
     22 N3         -3.4191    4.5048   -0.3372 N.pl3     1 <0>        -0.9330
     23 C17        -2.2277    4.3229   -1.0432 C.ar      1 <0>         0.1493
     24 C18        -2.2132    4.4436   -2.4270 C.ar      1 <0>        -0.0926
     25 C19        -1.0348    4.2572   -3.1225 C.ar      1 <0>        -0.1093
     26 C20         0.1322    3.9618   -2.4420 C.ar      1 <0>        -0.1144
     27 C21         0.1225    3.8465   -1.0640 C.ar      1 <0>        -0.1133
     28 C22        -1.0536    4.0261   -0.3627 C.ar      1 <0>        -0.1157
     29 S1         -4.0982    6.0115   -0.2333 S.o2      1 <0>         2.6001
     30 O3         -4.7425    6.0323    1.0331 O.2       1 <0>        -0.9461
     31 O4         -3.0346    6.9092   -0.5198 O.2       1 <0>        -0.9340
     32 C23        -5.3316    6.0596   -1.5626 C.3       1 <0>        -0.6723
     33 H2         -2.9827    3.6114    2.1557 H         1 <0>         0.0839
     34 H3         -3.6483    1.9792    1.9087 H         1 <0>         0.0771
     35 H4         -2.2141    2.5032    0.9941 H         1 <0>         0.0765
     36 H5         -5.1534    0.9840    0.5896 H         1 <0>         0.4238
     37 H6         -3.1763    0.5514   -2.2893 H         1 <0>         0.1421
     38 H7         -3.4057   -1.2828   -3.9070 H         1 <0>         0.1319
     39 H8         -5.3310   -2.8091   -3.7911 H         1 <0>         0.1313
     40 H9         -7.0425   -2.5147   -2.0546 H         1 <0>         0.1285
     41 H10        -8.1314   -2.3003   -0.5772 H         1 <0>         0.4002
     42 H11        -9.3135   -0.2931    1.1840 H         1 <0>         0.0908
     43 H12        -8.3840   -3.0000    2.2450 H         1 <0>         0.0637
     44 H13        -7.6769   -1.4217    2.6660 H         1 <0>         0.0676
     45 H14        -9.8589   -0.6906    3.5896 H         1 <0>         0.0652
     46 H15        -9.2848   -2.1677    4.4000 H         1 <0>         0.0660
     47 H16       -11.6904   -2.3456    3.8252 H         1 <0>         0.0651
     48 H17       -10.7277   -3.5395    2.9219 H         1 <0>         0.0629
     49 H18       -11.6572   -0.8327    1.8609 H         1 <0>         0.0658
     50 H19       -12.3643   -2.4110    1.4398 H         1 <0>         0.0683
     51 H20       -10.7564   -1.6650   -0.2942 H         1 <0>         0.0690
     52 H21       -10.1823   -3.1421    0.5163 H         1 <0>         0.0686
     53 H22        -3.1234    4.6787   -2.9587 H         1 <0>         0.1215
     54 H23        -1.0237    4.3465   -4.1988 H         1 <0>         0.1259
     55 H24         1.0534    3.8212   -2.9879 H         1 <0>         0.1241
     56 H25         1.0358    3.6161   -0.5355 H         1 <0>         0.1261
     57 H26        -1.0605    3.9363    0.7135 H         1 <0>         0.1288
     58 H27        -6.1416    5.3677   -1.3319 H         1 <0>         0.1283
     59 H28        -5.7310    7.0699   -1.6514 H         1 <0>         0.1331
     60 H29        -4.8634    5.7700   -2.5034 H         1 <0>         0.1319
@<TRIPOS>BOND
     1    1    2 1
     2    1   33 1
     3    1   34 1
     4    1   35 1
     5    2    3 1
     6    2    4 1
     7    2   22 1
     8    4    5 2
     9    4    6 am
    10    6    7 1
    11    6   36 1
    12    7   12 ar
    13    7    8 ar
    14    8    9 ar
    15    8   37 1
    16    9   10 ar
    17    9   38 1
    18   10   11 ar
    19   10   39 1
    20   11   12 ar
    21   11   40 1
    22   12   13 1
    23   13   14 2
    24   13   15 am
    25   15   16 1
    26   15   41 1
    27   16   21 1
    28   16   17 1
    29   16   42 1
    30   17   18 1
    31   17   43 1
    32   17   44 1
    33   18   19 1
    34   18   45 1
    35   18   46 1
    36   19   20 1
    37   19   47 1
    38   19   48 1
    39   20   21 1
    40   20   49 1
    41   20   50 1
    42   21   51 1
    43   21   52 1
    44   22   23 1
    45   22   29 1
    46   23   28 ar
    47   23   24 ar
    48   24   25 ar
    49   24   53 1
    50   25   26 ar
    51   25   54 1
    52   26   27 ar
    53   26   55 1
    54   27   28 ar
    55   27   56 1
    56   28   57 1
    57   29   30 2
    58   29   31 2
    59   29   32 1
    60   32   58 1
    61   32   59 1
    62   32   60 1
@<TRIPOS>MOLECULE
ZINC22612566
   59    61     0     0     0
SMALL
USER_CHARGES
N-[2-[(2R,6R)-2,6-dimethylmorpholin-4-yl]ethyl]-4-[(4-fluoro-3-methyl-phenyl)sulfonylamino]benzamide
@<TRIPOS>ATOM
      1 C1          0.7398   -1.5795    3.6140 C.3       1 <0>        -0.1192
      2 C2          0.0792   -2.3875    2.5270 C.ar      1 <0>        -0.1385
      3 C3         -0.8925   -1.8113    1.7307 C.ar      1 <0>         0.0093
      4 C4         -1.4989   -2.5523    0.7338 C.ar      1 <0>        -0.6871
      5 C5         -1.1342   -3.8707    0.5320 C.ar      1 <0>         0.0071
      6 C6         -0.1630   -4.4489    1.3268 C.ar      1 <0>        -0.1690
      7 C7          0.4452   -3.7074    2.3258 C.ar      1 <0>         0.1563
      8 F1          1.3945   -4.2719    3.1038 F         1 <0>        -0.1257
      9 S1         -2.7371   -1.8162   -0.2809 S.o2      1 <0>         2.6936
     10 O1         -3.4579   -2.8837   -0.8810 O.2       1 <0>        -0.9439
     11 O2         -3.3699   -0.8191    0.5094 O.2       1 <0>        -0.9478
     12 N1         -1.9570   -1.0233   -1.5078 N.pl3     1 <0>        -1.0775
     13 C8         -1.1925   -1.7389   -2.4226 C.ar      1 <0>         0.1532
     14 C9          0.1972   -1.6814   -2.3620 C.ar      1 <0>        -0.1206
     15 C10         0.9566   -2.3929   -3.2624 C.ar      1 <0>        -0.0805
     16 C11         0.3312   -3.1653   -4.2455 C.ar      1 <0>        -0.1259
     17 C12        -1.0645   -3.2165   -4.3072 C.ar      1 <0>        -0.0494
     18 C13        -1.8183   -2.5068   -3.4007 C.ar      1 <0>        -0.1126
     19 C14         1.1423   -3.9253   -5.2154 C.2       1 <0>         0.5597
     20 O3          0.5970   -4.5970   -6.0698 O.2       1 <0>        -0.5328
     21 N2          2.4877   -3.8750   -5.1546 N.am      1 <0>        -0.7367
     22 C15         3.2932   -4.6297   -6.1179 C.3       1 <0>         0.1240
     23 C16         4.7785   -4.4012   -5.8305 C.3       1 <0>         0.0440
     24 N3          5.5862   -5.1579   -6.7963 N.3       1 <0>        -0.5293
     25 C17         5.4182   -6.6057   -6.6039 C.3       1 <0>         0.0186
     26 C18         6.2281   -7.3537   -7.6661 C.3       1 <0>         0.0904
     27 H1          6.2189   -8.4389   -7.4865 H         1 <0>         0.1068
     28 O4          7.5982   -6.9520   -7.5842 O.3       1 <0>        -0.3835
     29 C19         7.7985   -5.5479   -7.7677 C.3       1 <0>         0.0825
     30 H2          7.4371   -5.3206   -8.7815 H         1 <0>         0.0727
     31 C20         7.0045   -4.7816   -6.7064 C.3       1 <0>         0.0263
     32 C21         9.2865   -5.2206   -7.6277 C.3       1 <0>        -0.1468
     33 C22         5.6804   -7.0211   -9.0555 C.3       1 <0>        -0.1775
     34 H3          0.3213   -0.5622    3.6204 H         1 <0>         0.0783
     35 H4          1.8226   -1.5294    3.4270 H         1 <0>         0.0770
     36 H5          0.5577   -2.0571    4.5880 H         1 <0>         0.0779
     37 H6         -1.1750   -0.7803    1.8845 H         1 <0>         0.1495
     38 H7         -1.6089   -4.4489   -0.2470 H         1 <0>         0.1512
     39 H8          0.1214   -5.4788    1.1692 H         1 <0>         0.1475
     40 H9         -2.0436    0.0695   -1.5990 H         1 <0>         0.4565
     41 H10         0.6797   -1.0810   -1.6050 H         1 <0>         0.1353
     42 H11         2.0346   -2.3514   -3.2121 H         1 <0>         0.1304
     43 H12        -1.5506   -3.8120   -5.0658 H         1 <0>         0.1447
     44 H13        -2.8966   -2.5459   -3.4479 H         1 <0>         0.1444
     45 H14         2.9810   -3.2673   -4.3817 H         1 <0>         0.4179
     46 H15         3.0630   -5.7016   -6.0282 H         1 <0>         0.0691
     47 H16         3.0603   -4.2887   -7.1375 H         1 <0>         0.0794
     48 H17         5.0086   -3.3293   -5.9202 H         1 <0>         0.0848
     49 H18         5.0114   -4.7421   -4.8109 H         1 <0>         0.0428
     50 H19         5.7759   -6.8864   -5.6023 H         1 <0>         0.0447
     51 H20         4.3541   -6.8673   -6.6998 H         1 <0>         0.0915
     52 H21         7.1084   -3.7000   -6.8778 H         1 <0>         0.0878
     53 H22         7.3879   -5.0328   -5.7064 H         1 <0>         0.0455
     54 H23         9.4392   -4.1405   -7.7690 H         1 <0>         0.0732
     55 H24         9.8568   -5.7742   -8.3882 H         1 <0>         0.0681
     56 H25         9.6332   -5.5119   -6.6252 H         1 <0>         0.0632
     57 H26         6.2631   -7.5591   -9.8177 H         1 <0>         0.0599
     58 H27         5.7588   -5.9380   -9.2309 H         1 <0>         0.0726
     59 H28         4.6256   -7.3271   -9.1167 H         1 <0>         0.0667
@<TRIPOS>BOND
     1    1    2 1
     2    1   34 1
     3    1   35 1
     4    1   36 1
     5    2    7 ar
     6    2    3 ar
     7    3    4 ar
     8    3   37 1
     9    4    5 ar
    10    4    9 1
    11    5    6 ar
    12    5   38 1
    13    6    7 ar
    14    6   39 1
    15    7    8 1
    16    9   10 2
    17    9   11 2
    18    9   12 1
    19   12   13 1
    20   12   40 1
    21   13   18 ar
    22   13   14 ar
    23   14   15 ar
    24   14   41 1
    25   15   16 ar
    26   15   42 1
    27   16   17 ar
    28   16   19 1
    29   17   18 ar
    30   17   43 1
    31   18   44 1
    32   19   20 2
    33   19   21 am
    34   21   22 1
    35   21   45 1
    36   22   23 1
    37   22   46 1
    38   22   47 1
    39   23   24 1
    40   23   48 1
    41   23   49 1
    42   24   31 1
    43   24   25 1
    44   25   26 1
    45   25   50 1
    46   25   51 1
    47   26   27 1
    48   26   28 1
    49   26   33 1
    50   28   29 1
    51   29   30 1
    52   29   31 1
    53   29   32 1
    54   31   52 1
    55   31   53 1
    56   32   54 1
    57   32   55 1
    58   32   56 1
    59   33   57 1
    60   33   58 1
    61   33   59 1
@<TRIPOS>MOLECULE
ZINC36218803
   63    65     0     0     0
SMALL
USER_CHARGES

@<TRIPOS>ATOM
      1 C1         -3.2401   -9.6100   -0.5432 C.3       1 <0>        -0.1179
      2 C2         -2.4412   -8.3329   -0.5883 C.ar      1 <0>        -0.0763
      3 C3         -2.2318   -7.6074    0.5695 C.ar      1 <0>        -0.1222
      4 C4         -1.4991   -6.4359    0.5281 C.ar      1 <0>        -0.0875
      5 C5         -0.9754   -5.9903   -0.6711 C.ar      1 <0>        -0.1255
      6 C6         -1.1840   -6.7163   -1.8288 C.ar      1 <0>        -0.0982
      7 C7         -1.9132   -7.8900   -1.7866 C.ar      1 <0>        -0.1246
      8 C8         -0.1774   -4.7127   -0.7164 C.3       1 <0>         0.1916
      9 N1          1.2241   -5.0009   -0.4020 N.am      1 <0>        -0.6041
     10 C9          2.2983   -5.2679   -1.3788 C.3       1 <0>         0.0812
     11 H1          2.2177   -6.2791   -1.7775 H         1 <0>         0.1180
     12 C10         3.5721   -5.1167   -0.5138 C.3       1 <0>         0.1358
     13 H2          3.9708   -4.1045   -0.5817 H         1 <0>         0.1159
     14 O1          3.0696   -5.3841    0.8099 O.3       1 <0>        -0.3111
     15 C11         1.7646   -5.0640    0.8295 C.2       1 <0>         0.6485
     16 O2          1.1384   -4.8567    1.8499 O.2       1 <0>        -0.4996
     17 C12         4.6146   -6.1305   -0.9094 C.ar      1 <0>        -0.0862
     18 C13         4.5183   -7.4334   -0.4558 C.ar      1 <0>        -0.1011
     19 C14         5.4724   -8.3666   -0.8168 C.ar      1 <0>        -0.0953
     20 C15         6.5254   -8.0000   -1.6322 C.ar      1 <0>        -0.1052
     21 C16         6.6250   -6.6927   -2.0894 C.ar      1 <0>         0.1505
     22 C17         5.6620   -5.7589   -1.7292 C.ar      1 <0>        -0.1250
     23 N2          7.6906   -6.3180   -2.9152 N.am      1 <0>        -0.6750
     24 C18         8.2080   -7.2024   -3.7907 C.2       1 <0>         0.5173
     25 O3          7.6918   -8.2911   -3.9295 O.2       1 <0>        -0.5138
     26 C19         9.4280   -6.8386   -4.5972 C.3       1 <0>        -0.1128
     27 C20        10.5910   -6.5307   -3.6520 C.3       1 <0>        -0.1475
     28 C21         9.8061   -8.0096   -5.5065 C.3       1 <0>        -0.1356
     29 C22         2.2764   -4.2517   -2.4915 C.2       1 <0>         0.5138
     30 O4          1.8349   -3.1404   -2.2892 O.2       1 <0>        -0.5133
     31 N3          2.7474   -4.5779   -3.7114 N.am      1 <0>        -0.7160
     32 C23         2.7260   -3.5901   -4.7930 C.3       1 <0>         0.1364
     33 C24         3.8126   -3.9296   -5.8153 C.3       1 <0>        -0.1614
     34 C25         1.3576   -3.6121   -5.4769 C.3       1 <0>        -0.1653
     35 H3         -2.5724  -10.4495   -0.3496 H         1 <0>         0.0718
     36 H4         -3.9830   -9.5459    0.2518 H         1 <0>         0.0679
     37 H5         -3.7426   -9.7582   -1.4990 H         1 <0>         0.0672
     38 H6         -2.6410   -7.9555    1.5064 H         1 <0>         0.1238
     39 H7         -1.3361   -5.8687    1.4326 H         1 <0>         0.1287
     40 H8         -0.7752   -6.3680   -2.7657 H         1 <0>         0.1179
     41 H9         -2.0730   -8.4592   -2.6904 H         1 <0>         0.1225
     42 H10        -0.2440   -4.2779   -1.7137 H         1 <0>         0.0957
     43 H11        -0.5764   -4.0090    0.0141 H         1 <0>         0.0993
     44 H12         3.6962   -7.7225    0.1822 H         1 <0>         0.1296
     45 H13         5.3946   -9.3832   -0.4606 H         1 <0>         0.1330
     46 H14         7.2706   -8.7293   -1.9136 H         1 <0>         0.1384
     47 H15         5.7344   -4.7423   -2.0865 H         1 <0>         0.1294
     48 H16         8.0570   -5.4217   -2.8575 H         1 <0>         0.4123
     49 H17         9.2124   -5.9606   -5.2061 H         1 <0>         0.1010
     50 H18        10.8066   -7.4087   -3.0430 H         1 <0>         0.0632
     51 H19        11.4734   -6.2676   -4.2353 H         1 <0>         0.0732
     52 H20        10.3217   -5.6965   -3.0042 H         1 <0>         0.0602
     53 H21         8.9775   -8.2289   -6.1798 H         1 <0>         0.0634
     54 H22        10.6884   -7.7464   -6.0898 H         1 <0>         0.0657
     55 H23        10.0216   -8.8875   -4.8975 H         1 <0>         0.0639
     56 H24         3.1005   -5.4667   -3.8732 H         1 <0>         0.4034
     57 H25         2.9110   -2.5975   -4.3823 H         1 <0>         0.0912
     58 H26         3.6276   -4.9222   -6.2260 H         1 <0>         0.0626
     59 H27         3.7967   -3.1946   -6.6201 H         1 <0>         0.0761
     60 H28         4.7875   -3.9139   -5.3281 H         1 <0>         0.0616
     61 H29         0.5835   -3.3702   -4.7487 H         1 <0>         0.0608
     62 H30         1.3417   -2.8771   -6.2817 H         1 <0>         0.0692
     63 H31         1.1726   -4.6047   -5.8877 H         1 <0>         0.0585
@<TRIPOS>BOND
     1    1    2 1
     2    1   35 1
     3    1   36 1
     4    1   37 1
     5    2    7 ar
     6    2    3 ar
     7    3    4 ar
     8    3   38 1
     9    4    5 ar
    10    4   39 1
    11    5    6 ar
    12    5    8 1
    13    6    7 ar
    14    6   40 1
    15    7   41 1
    16    8    9 1
    17    8   42 1
    18    8   43 1
    19    9   15 am
    20    9   10 1
    21   10   11 1
    22   10   12 1
    23   10   29 1
    24   12   13 1
    25   12   14 1
    26   12   17 1
    27   14   15 1
    28   15   16 2
    29   17   22 ar
    30   17   18 ar
    31   18   19 ar
    32   18   44 1
    33   19   20 ar
    34   19   45 1
    35   20   21 ar
    36   20   46 1
    37   21   22 ar
    38   21   23 1
    39   22   47 1
    40   23   24 am
    41   23   48 1
    42   24   25 2
    43   24   26 1
    44   26   27 1
    45   26   28 1
    46   26   49 1
    47   27   50 1
    48   27   51 1
    49   27   52 1
    50   28   53 1
    51   28   54 1
    52   28   55 1
    53   29   30 2
    54   29   31 am
    55   31   32 1
    56   31   56 1
    57   32   33 1
    58   32   34 1
    59   32   57 1
    60   33   58 1
    61   33   59 1
    62   33   60 1
    63   34   61 1
    64   34   62 1
    65   34   63 1
@<TRIPOS>MOLECULE
ZINC57327503
   52    54     0     0     0
SMALL
USER_CHARGES

@<TRIPOS>ATOM
      1 C1         -1.8960    1.4206   -0.5963 C.3       1 <0>        -0.1233
      2 C2         -1.8600   -0.0852   -0.6427 C.ar      1 <0>        -0.0391
      3 C3         -0.9310   -0.7276   -1.4431 C.ar      1 <0>        -0.1236
      4 C4         -0.8917   -2.1051   -1.4910 C.ar      1 <0>        -0.0731
      5 C5         -1.7921   -2.8534   -0.7295 C.ar      1 <0>        -0.1406
      6 C6         -2.7275   -2.1991    0.0764 C.ar      1 <0>         0.0238
      7 C7         -2.7514   -0.8185    0.1187 C.ar      1 <0>        -0.1197
      8 Cl1        -3.8518   -3.1187    1.0273 Cl        1 <0>        -0.0194
      9 C8         -1.7562   -4.3292   -0.7762 C.2       1 <0>         0.5273
     10 O1         -2.5411   -4.9775   -0.1124 O.2       1 <0>        -0.3758
     11 N1         -0.8529   -4.9569   -1.5550 N.am      1 <0>        -0.6384
     12 C9         -0.8201   -6.3036   -1.5977 C.2       1 <0>         0.5074
     13 S1         -1.9258   -7.2168   -0.6626 S.2       1 <0>        -0.4701
     14 N2          0.0831   -6.9313   -2.3765 N.pl3     1 <0>        -0.6137
     15 C10         0.1944   -8.3278   -2.3346 C.ar      1 <0>         0.1073
     16 C11         0.1955   -8.9851   -1.1192 C.ar      1 <0>        -0.0017
     17 C12         0.3068  -10.3785   -1.0817 C.ar      1 <0>        -0.1220
     18 C13         0.4164  -11.1014   -2.2736 C.ar      1 <0>        -0.0448
     19 C14         0.4148  -10.4420   -3.4824 C.ar      1 <0>        -0.1340
     20 C15         0.2985   -9.0571   -3.5224 C.ar      1 <0>         0.2083
     21 N3          0.2916   -8.3952   -4.7472 N.pl3     1 <0>        -0.6831
     22 C16         1.5449   -7.9390   -5.3688 C.3       1 <0>         0.1057
     23 C17         1.5730   -8.4333   -6.8196 C.3       1 <0>         0.0462
     24 O2          0.3622   -8.0447   -7.4728 O.3       1 <0>        -0.3797
     25 C18        -0.8187   -8.6166   -6.9051 C.3       1 <0>         0.0464
     26 C19        -0.9688   -8.1367   -5.4614 C.3       1 <0>         0.1113
     27 C20         0.3090  -11.0842    0.2123 C.2       1 <0>         0.5078
     28 O3          0.2141  -10.4551    1.2476 O.2       1 <0>        -0.4940
     29 O4          0.4162  -12.4271    0.2473 O.3       1 <0>        -0.3507
     30 C21         0.4116  -13.0449    1.5358 C.3       1 <0>         0.0346
     31 H1         -1.2335    1.7757    0.1930 H         1 <0>         0.0816
     32 H2         -1.5667    1.8216   -1.5549 H         1 <0>         0.0754
     33 H3         -2.9139    1.7537   -0.3935 H         1 <0>         0.0752
     34 H4         -0.2353   -0.1483   -2.0319 H         1 <0>         0.1383
     35 H5         -0.1664   -2.6043   -2.1164 H         1 <0>         0.1301
     36 H6         -3.4704   -0.3108    0.7445 H         1 <0>         0.1444
     37 H7         -0.2265   -4.4395   -2.0849 H         1 <0>         0.4071
     38 H8          0.6562   -6.4166   -2.9660 H         1 <0>         0.4074
     39 H9          0.1111   -8.4239   -0.2003 H         1 <0>         0.1545
     40 H10         0.5027  -12.1775   -2.2460 H         1 <0>         0.1445
     41 H11         0.4996  -11.0023   -4.4018 H         1 <0>         0.1375
     42 H12         1.5883   -6.8500   -5.3511 H         1 <0>         0.0584
     43 H13         2.3953   -8.3496   -4.8245 H         1 <0>         0.0829
     44 H14         2.4242   -7.9921   -7.3381 H         1 <0>         0.1011
     45 H15         1.6611   -9.5196   -6.8324 H         1 <0>         0.0559
     46 H16        -1.6881   -8.3073   -7.4852 H         1 <0>         0.1017
     47 H17        -0.7392   -9.7037   -6.9183 H         1 <0>         0.0556
     48 H18        -1.7822   -8.6782   -4.9784 H         1 <0>         0.0834
     49 H19        -1.1828   -7.0679   -5.4532 H         1 <0>         0.0572
     50 H20         0.5039  -14.1250    1.4212 H         1 <0>         0.1041
     51 H21         1.2499  -12.6688    2.1222 H         1 <0>         0.0616
     52 H22        -0.5227  -12.8123    2.0469 H         1 <0>         0.0626
@<TRIPOS>BOND
     1    1    2 1
     2    1   31 1
     3    1   32 1
     4    1   33 1
     5    2    7 ar
     6    2    3 ar
     7    3    4 ar
     8    3   34 1
     9    4    5 ar
    10    4   35 1
    11    5    6 ar
    12    5    9 1
    13    6    7 ar
    14    6    8 1
    15    7   36 1
    16    9   10 2
    17    9   11 am
    18   11   12 1
    19   11   37 1
    20   12   13 2
    21   12   14 1
    22   14   15 1
    23   14   38 1
    24   15   20 ar
    25   15   16 ar
    26   16   17 ar
    27   16   39 1
    28   17   18 ar
    29   17   27 1
    30   18   19 ar
    31   18   40 1
    32   19   20 ar
    33   19   41 1
    34   20   21 1
    35   21   26 1
    36   21   22 1
    37   22   23 1
    38   22   42 1
    39   22   43 1
    40   23   24 1
    41   23   44 1
    42   23   45 1
    43   24   25 1
    44   25   26 1
    45   25   46 1
    46   25   47 1
    47   26   48 1
    48   26   49 1
    49   27   28 2
    50   27   29 1
    51   29   30 1
    52   30   50 1
    53   30   51 1
    54   30   52 1
@<TRIPOS>MOLECULE
ZINC64869441
   49    51     0     0     0
SMALL
USER_CHARGES

@<TRIPOS>ATOM
      1 C1          0.1053    1.3325   -0.2480 C.3       1 <0>         0.0330
      2 O1          0.0941   -0.0954   -0.1929 O.3       1 <0>        -0.3505
      3 C2         -1.1066   -0.6944   -0.1575 C.2       1 <0>         0.4577
      4 O2         -2.1146   -0.0285   -0.1727 O.2       1 <0>        -0.4857
      5 C3         -1.1973   -2.1975   -0.0986 C.3       1 <0>        -0.0977
      6 C4         -2.6457   -2.6126   -0.0678 C.2       1 <0>         0.2474
      7 C5         -3.1849   -2.9258   -1.2618 C.2       1 <0>        -0.3073
      8 C6         -4.5001   -3.3468   -1.5690 C.2       1 <0>         0.5819
      9 O3         -4.7209   -3.5656   -2.7459 O.2       1 <0>        -0.5351
     10 N1         -5.5424   -3.5390   -0.7351 N.am      1 <0>        -0.5446
     11 C7         -5.5808   -3.3667    0.6593 C.ar      1 <0>         0.1601
     12 C8         -6.8294   -3.6595    1.1798 C.ar      1 <0>        -0.1489
     13 C9         -7.0531   -3.5451    2.5412 C.ar      1 <0>        -0.1077
     14 C10        -6.0340   -3.1392    3.3814 C.ar      1 <0>        -0.1117
     15 C11        -4.7828   -2.8449    2.8674 C.ar      1 <0>        -0.1355
     16 C12        -4.5524   -2.9573    1.5069 C.ar      1 <0>         0.1479
     17 N2         -3.2299   -2.6241    1.1718 N.pl3     1 <0>        -0.6504
     18 C13        -6.7906   -3.9824   -1.3608 C.3       1 <0>         0.0736
     19 C14        -7.6887   -2.7938   -1.5876 C.2       1 <0>         0.4983
     20 O4         -7.3223   -1.6853   -1.2589 O.2       1 <0>        -0.4921
     21 N3         -8.8992   -2.9624   -2.1557 N.am      1 <0>        -0.6749
     22 C15        -9.6891   -1.8491   -2.4630 C.ar      1 <0>         0.1834
     23 C16       -11.0717   -1.9265   -2.3583 C.ar      1 <0>        -0.1470
     24 C17       -11.8485   -0.8258   -2.6624 C.ar      1 <0>        -0.0487
     25 C18       -11.2510    0.3525   -3.0708 C.ar      1 <0>        -0.2007
     26 C19        -9.8746    0.4327   -3.1765 C.ar      1 <0>        -0.0478
     27 C20        -9.0918   -0.6626   -2.8679 C.ar      1 <0>        -0.1223
     28 C21       -12.1017    1.5515   -3.4018 C.3       1 <0>         0.5102
     29 F1        -12.2922    2.3208   -2.2489 F         1 <0>        -0.1764
     30 F2        -11.4606    2.3233   -4.3768 F         1 <0>        -0.1768
     31 F3        -13.3421    1.1236   -3.8871 F         1 <0>        -0.1773
     32 H1          1.1358    1.6871   -0.2722 H         1 <0>         0.1064
     33 H2         -0.4147    1.6656   -1.1461 H         1 <0>         0.0638
     34 H3         -0.3964    1.7341    0.6324 H         1 <0>         0.0626
     35 H4         -0.7154   -2.6253   -0.9778 H         1 <0>         0.1432
     36 H5         -0.6971   -2.5568    0.8007 H         1 <0>         0.1284
     37 H6         -2.5169   -2.8433   -2.1064 H         1 <0>         0.1534
     38 H7         -7.6278   -3.9762    0.5251 H         1 <0>         0.1366
     39 H8         -8.0272   -3.7734    2.9478 H         1 <0>         0.1301
     40 H9         -6.2143   -3.0510    4.4426 H         1 <0>         0.1313
     41 H10        -3.9880   -2.5279    3.5264 H         1 <0>         0.1358
     42 H11        -2.6585   -2.3645    1.9115 H         1 <0>         0.4106
     43 H12        -6.5691   -4.4580   -2.3163 H         1 <0>         0.1393
     44 H13        -7.2912   -4.6965   -0.7069 H         1 <0>         0.1229
     45 H14        -9.2229   -3.8556   -2.3515 H         1 <0>         0.4161
     46 H15       -11.5390   -2.8466   -2.0397 H         1 <0>         0.1399
     47 H16       -12.9238   -0.8855   -2.5815 H         1 <0>         0.1413
     48 H17        -9.4109    1.3543   -3.4961 H         1 <0>         0.1396
     49 H18        -8.0165   -0.5977   -2.9458 H         1 <0>         0.1442
@<TRIPOS>BOND
     1    1    2 1
     2    1   32 1
     3    1   33 1
     4    1   34 1
     5    2    3 1
     6    3    4 2
     7    3    5 1
     8    5    6 1
     9    5   35 1
    10    5   36 1
    11    6   17 1
    12    6    7 2
    13    7    8 1
    14    7   37 1
    15    8    9 2
    16    8   10 am
    17   10   11 1
    18   10   18 1
    19   11   16 ar
    20   11   12 ar
    21   12   13 ar
    22   12   38 1
    23   13   14 ar
    24   13   39 1
    25   14   15 ar
    26   14   40 1
    27   15   16 ar
    28   15   41 1
    29   16   17 1
    30   17   42 1
    31   18   19 1
    32   18   43 1
    33   18   44 1
    34   19   20 2
    35   19   21 am
    36   21   22 1
    37   21   45 1
    38   22   27 ar
    39   22   23 ar
    40   23   24 ar
    41   23   46 1
    42   24   25 ar
    43   24   47 1
    44   25   26 ar
    45   25   28 1
    46   26   27 ar
    47   26   48 1
    48   27   49 1
    49   28   29 1
    50   28   30 1
    51   28   31 1
@<TRIPOS>MOLECULE
ZINC13218736
   36    38     0     0     0
SMALL
USER_CHARGES
3,5-dichloro-2-[[2-[(4-cyclopropyl-5-oxo-1H-1,2,4-triazol-3-yl)sulfanyl]acetyl]amino]benzoic acid
@<TRIPOS>ATOM
      1 C1          0.2571    1.3964   -0.7887 C.ar      1 <0>        -0.0509
      2 C2          1.1725    2.0959   -0.0305 C.ar      1 <0>        -0.0448
      3 C3          2.1102    1.4195    0.7343 C.ar      1 <0>        -0.0942
      4 C4          2.1387    0.0384    0.7449 C.ar      1 <0>        -0.0344
      5 C5          1.2241   -0.6824   -0.0126 C.ar      1 <0>         0.1827
      6 C6          0.2735   -0.0008   -0.7875 C.ar      1 <0>        -0.1052
      7 C7         -0.7018   -0.7542   -1.5959 C.2       1 <0>         0.4964
      8 O1         -0.6221   -1.9643   -1.6720 O.co2     1 <0>        -0.6210
      9 N1          1.2511   -2.0756   -0.0034 N.am      1 <0>        -0.6346
     10 C8          2.4115   -2.7285   -0.2116 C.2       1 <0>         0.5304
     11 O2          3.4482   -2.1067   -0.3094 O.2       1 <0>        -0.5057
     12 C9          2.4210   -4.2314   -0.3230 C.3       1 <0>        -0.1490
     13 S1          4.1153   -4.8052   -0.5993 S.3       1 <0>         0.1120
     14 C10         3.8390   -6.5431   -0.6883 C.2       1 <0>         0.2444
     15 N2          2.6864   -7.1359   -0.5666 N.2       1 <0>        -0.2814
     16 N3          2.8918   -8.5159   -0.7018 N.am      1 <0>        -0.5424
     17 H1          2.2103   -9.2048   -0.6580 H         1 <0>         0.4563
     18 C11         4.2122   -8.7101   -0.8986 C.2       1 <0>         0.6545
     19 O3          4.7664   -9.7838   -1.0542 O.2       1 <0>        -0.5534
     20 N4          4.8069   -7.5005   -0.8922 N.am      1 <0>        -0.5070
     21 C12         6.2388   -7.2479   -1.0710 C.3       1 <0>         0.0691
     22 C13         7.1178   -8.4288   -1.4880 C.3       1 <0>        -0.1755
     23 C14         7.1991   -7.8799   -0.0613 C.3       1 <0>        -0.1755
     24 Cl1         3.3181   -0.7973    1.7063 Cl        1 <0>        -0.0446
     25 Cl2         1.1501    3.8317   -0.0336 Cl        1 <0>        -0.0712
     26 H2         -0.4688    1.9280   -1.3860 H         1 <0>         0.1523
     27 H3          2.8230    1.9756    1.3252 H         1 <0>         0.1413
     28 H4          0.4346   -2.5754    0.1529 H         1 <0>         0.4250
     29 H5          2.0359   -4.6665    0.5992 H         1 <0>         0.1281
     30 H6          1.7928   -4.5377   -1.1594 H         1 <0>         0.1369
     31 H7          6.4973   -6.2646   -1.4639 H         1 <0>         0.1487
     32 H8          6.6307   -9.3935   -1.6293 H         1 <0>         0.1302
     33 H9          7.9548   -8.2223   -2.1550 H         1 <0>         0.1085
     34 H10         8.0895   -7.3126    0.2096 H         1 <0>         0.1117
     35 H11         6.7654   -8.4833    0.7361 H         1 <0>         0.0990
     36 O4         -1.6820   -0.1011   -2.2505 O.co2     1 <0>        -0.7368
@<TRIPOS>BOND
     1    1    6 ar
     2    1    2 ar
     3    1   26 1
     4    2    3 ar
     5    2   25 1
     6    3    4 ar
     7    3   27 1
     8    4    5 ar
     9    4   24 1
    10    5    6 ar
    11    5    9 1
    12    6    7 1
    13    7    8 2
    14    7   36 1
    15    9   10 am
    16    9   28 1
    17   10   11 2
    18   10   12 1
    19   12   13 1
    20   12   29 1
    21   12   30 1
    22   13   14 1
    23   14   20 1
    24   14   15 2
    25   15   16 1
    26   16   17 1
    27   16   18 am
    28   18   19 2
    29   18   20 am
    30   20   21 1
    31   21   23 1
    32   21   22 1
    33   21   31 1
    34   22   23 1
    35   22   32 1
    36   22   33 1
    37   23   34 1
    38   23   35 1
@<TRIPOS>MOLECULE
ZINC17080229
   54    56     0     0     0
SMALL
USER_CHARGES
4-[[(6S)-6-tert-butyl-3-(cyclopropylcarbamoyl)-4,5,6,7-tetrahydrobenzothiophen-2-yl]amino]-4-oxo-butanoic acid
@<TRIPOS>ATOM
      1 C1         -3.6374    4.1379   10.0880 C.3       1 <0>        -0.1440
      2 C2         -4.1380    4.0416    8.6454 C.3       1 <0>        -0.0626
      3 C3         -4.6513    5.4095    8.1914 C.3       1 <0>        -0.1454
      4 C4         -5.2733    3.0190    8.5667 C.3       1 <0>        -0.1476
      5 C5         -2.9899    3.6001    7.7356 C.3       1 <0>        -0.0700
      6 H1         -2.1819    4.3299    7.7865 H         1 <0>         0.0757
      7 C6         -2.4740    2.2309    8.1878 C.3       1 <0>        -0.1148
      8 C7         -1.1775    1.8937    7.4494 C.3       1 <0>        -0.0578
      9 C8         -1.4105    2.0530    5.9520 C.2       1 <0>        -0.0614
     10 C9         -2.4547    2.7700    5.4829 C.2       1 <0>        -0.2209
     11 S1         -2.3113    2.6784    3.7207 S.3       1 <0>         0.2296
     12 C10        -0.8906    1.6931    3.6066 C.2       1 <0>         0.0926
     13 C11        -0.5565    1.4652    4.9341 C.2       1 <0>        -0.2464
     14 C12         0.6147    0.6607    5.2960 C.2       1 <0>         0.5904
     15 O1          1.6977    1.1954    5.4455 O.2       1 <0>        -0.5299
     16 N1          0.4918   -0.6711    5.4631 N.am      1 <0>        -0.6974
     17 C13         1.6620   -1.4749    5.8247 C.3       1 <0>         0.0769
     18 C14         1.8600   -2.8036    5.0924 C.3       1 <0>        -0.1925
     19 C15         1.4132   -2.7958    6.5556 C.3       1 <0>        -0.1888
     20 N2         -0.2416    1.2460    2.4658 N.am      1 <0>        -0.6269
     21 C16        -0.7181    1.5718    1.2479 C.2       1 <0>         0.5082
     22 O2         -1.7145    2.2562    1.1498 O.2       1 <0>        -0.4975
     23 C17        -0.0127    1.0858    0.0080 C.3       1 <0>        -0.1124
     24 C18        -0.7527    1.5927   -1.2315 C.3       1 <0>        -0.1428
     25 C19        -0.0473    1.1067   -2.4714 C.2       1 <0>         0.4612
     26 O3          0.9454    0.4249   -2.3737 O.co2     1 <0>        -0.6432
     27 C20        -3.4939    3.4859    6.2895 C.3       1 <0>        -0.0301
     28 H2         -2.8285    4.8664   10.1440 H         1 <0>         0.0544
     29 H3         -4.4553    4.4525   10.7362 H         1 <0>         0.0533
     30 H4         -3.2716    3.1634   10.4115 H         1 <0>         0.0585
     31 H5         -5.0080    5.3410    7.1636 H         1 <0>         0.0586
     32 H6         -5.4692    5.7241    8.8396 H         1 <0>         0.0535
     33 H7         -3.8425    6.1381    8.2474 H         1 <0>         0.0549
     34 H8         -4.9075    2.0445    8.8902 H         1 <0>         0.0575
     35 H9         -6.0912    3.3336    9.2149 H         1 <0>         0.0525
     36 H10        -5.6299    2.9504    7.5390 H         1 <0>         0.0597
     37 H11        -3.2239    1.4709    7.9685 H         1 <0>         0.0676
     38 H12        -2.2845    2.2518    9.2610 H         1 <0>         0.0716
     39 H13        -0.8899    0.8651    7.6670 H         1 <0>         0.0696
     40 H14        -0.3870    2.5720    7.7704 H         1 <0>         0.0758
     41 H15        -0.3713   -1.0972    5.3439 H         1 <0>         0.4031
     42 H16         2.5547   -0.9108    6.0946 H         1 <0>         0.1380
     43 H17         1.1196   -3.0797    4.3415 H         1 <0>         0.0985
     44 H18         2.8831   -3.1138    4.8802 H         1 <0>         0.1036
     45 H19         2.1424   -3.1008    7.3062 H         1 <0>         0.1029
     46 H20         0.3788   -3.0666    6.7675 H         1 <0>         0.0966
     47 H21         0.5554    0.6986    2.5442 H         1 <0>         0.4201
     48 H22         0.0021   -0.0041    0.0020 H         1 <0>         0.1017
     49 H23         1.0099    1.4631    0.0003 H         1 <0>         0.1024
     50 H24        -1.7753    1.2154   -1.2238 H         1 <0>         0.0737
     51 H25        -0.7675    2.6825   -1.2255 H         1 <0>         0.0740
     52 H26        -4.4268    2.9227    6.2692 H         1 <0>         0.0846
     53 H27        -3.6572    4.4819    5.8779 H         1 <0>         0.0789
     54 O4         -0.5219    1.4312   -3.6843 O.co2     1 <0>        -0.7680
@<TRIPOS>BOND
     1    1    2 1
     2    1   28 1
     3    1   29 1
     4    1   30 1
     5    2    3 1
     6    2    4 1
     7    2    5 1
     8    3   31 1
     9    3   32 1
    10    3   33 1
    11    4   34 1
    12    4   35 1
    13    4   36 1
    14    5    6 1
    15    5   27 1
    16    5    7 1
    17    7    8 1
    18    7   37 1
    19    7   38 1
    20    8    9 1
    21    8   39 1
    22    8   40 1
    23    9   13 1
    24    9   10 2
    25   10   11 1
    26   10   27 1
    27   11   12 1
    28   12   13 2
    29   12   20 1
    30   13   14 1
    31   14   15 2
    32   14   16 am
    33   16   17 1
    34   16   41 1
    35   17   19 1
    36   17   18 1
    37   17   42 1
    38   18   19 1
    39   18   43 1
    40   18   44 1
    41   19   45 1
    42   19   46 1
    43   20   21 am
    44   20   47 1
    45   21   22 2
    46   21   23 1
    47   23   24 1
    48   23   48 1
    49   23   49 1
    50   24   25 1
    51   24   50 1
    52   24   51 1
    53   25   26 2
    54   25   54 1
    55   27   52 1
    56   27   53 1
@<TRIPOS>MOLECULE
ZINC39898746
   49    53     0     0     0
SMALL
USER_CHARGES

@<TRIPOS>ATOM
      1 C1         -0.0173    1.4248    0.0099 C.3       1 <0>         0.0273
      2 O1          0.0021   -0.0041    0.0020 O.3       1 <0>        -0.3122
      3 C2          0.6062   -0.6075   -1.0564 C.ar      1 <0>         0.1185
      4 C3          1.1729    0.1590   -2.0621 C.ar      1 <0>        -0.1448
      5 C4          1.7870   -0.4560   -3.1371 C.ar      1 <0>        -0.0307
      6 C5          1.8372   -1.8356   -3.2121 C.ar      1 <0>        -0.1093
      7 C6          1.2734   -2.6062   -2.2124 C.ar      1 <0>        -0.1042
      8 C7          0.6617   -1.9961   -1.1290 C.ar      1 <0>         0.0780
      9 O2          0.1119   -2.7526   -0.1417 O.3       1 <0>        -0.4876
     10 C8          2.4028    0.3792   -4.2300 C.3       1 <0>         0.2660
     11 H1          1.9752    1.3817   -4.2203 H         1 <0>         0.0940
     12 C9          3.8941    0.4519   -4.0464 C.2       1 <0>        -0.2022
     13 C10         4.9368    0.8237   -3.2593 C.2       1 <0>         0.1909
     14 N1          6.0757    0.4839   -3.9319 N.pl3     1 <0>        -0.3875
     15 N2          5.7745   -0.0603   -5.0569 N.2       1 <0>        -0.2285
     16 H2          6.9783    0.6317   -3.6087 H         1 <0>         0.4465
     17 C11         4.4661   -0.1187   -5.2060 C.2       1 <0>        -0.0504
     18 C12         3.3665   -0.5383   -6.0935 C.2       1 <0>         0.6204
     19 O3          3.5141   -1.0677   -7.1778 O.2       1 <0>        -0.5228
     20 N3          2.1765   -0.2526   -5.5351 N.am      1 <0>        -0.5990
     21 C13         0.8671   -0.5281   -6.1316 C.3       1 <0>         0.2223
     22 C14         0.4321    0.6553   -6.9570 C.2       1 <0>        -0.0380
     23 C15         0.6897    0.8399   -8.2643 C.2       1 <0>        -0.1837
     24 C16         0.0998    2.0722   -8.6281 C.2       1 <0>        -0.2180
     25 C17        -0.4830    2.5670   -7.5213 C.2       1 <0>        -0.0371
     26 O4         -0.2835    1.7018   -6.5136 O.3       1 <0>        -0.1708
     27 C18         4.8546    1.4712   -1.9316 C.ar      1 <0>        -0.2193
     28 C19         5.3301    2.7702   -1.7551 C.ar      1 <0>        -0.0281
     29 C20         5.2504    3.3697   -0.5139 C.ar      1 <0>        -0.1743
     30 C21         4.7000    2.6851    0.5570 C.ar      1 <0>        -0.0481
     31 C22         4.2259    1.3974    0.3925 C.ar      1 <0>        -0.2498
     32 C23         4.2941    0.7853   -0.8484 C.ar      1 <0>         0.3043
     33 O5          3.8231   -0.4785   -1.0119 O.3       1 <0>        -0.6628
     34 Cl1         5.8425    4.9868   -0.2946 Cl        1 <0>        -0.1257
     35 H3          1.0053    1.8021    0.0021 H         1 <0>         0.0609
     36 H4         -0.5445    1.7859   -0.8732 H         1 <0>         0.0485
     37 H5         -0.5275    1.7763    0.9067 H         1 <0>         0.0929
     38 H6          1.1344    1.2368   -2.0063 H         1 <0>         0.1215
     39 H7          2.3175   -2.3124   -4.0537 H         1 <0>         0.1129
     40 H8          1.3136   -3.6837   -2.2735 H         1 <0>         0.1246
     41 H9         -0.8162   -2.9794   -0.2906 H         1 <0>         0.3738
     42 H10         0.9363   -1.4098   -6.7687 H         1 <0>         0.1195
     43 H11         0.1382   -0.7073   -5.3411 H         1 <0>         0.1041
     44 H12         1.2417    0.1746   -8.9117 H         1 <0>         0.1503
     45 H13         0.1146    2.5288   -9.6067 H         1 <0>         0.1466
     46 H14        -1.0232    3.4999   -7.4552 H         1 <0>         0.2011
     47 H15         5.7605    3.3064   -2.5880 H         1 <0>         0.1011
     48 H16         4.6414    3.1597    1.5253 H         1 <0>         0.1025
     49 H17         3.7979    0.8690    1.2316 H         1 <0>         0.1062
@<TRIPOS>BOND
     1    1    2 1
     2    1   35 1
     3    1   36 1
     4    1   37 1
     5    2    3 1
     6    3    8 ar
     7    3    4 ar
     8    4    5 ar
     9    4   38 1
    10    5    6 ar
    11    5   10 1
    12    6    7 ar
    13    6   39 1
    14    7    8 ar
    15    7   40 1
    16    8    9 1
    17    9   41 1
    18   10   11 1
    19   10   20 1
    20   10   12 1
    21   12   17 1
    22   12   13 2
    23   13   27 1
    24   13   14 1
    25   14   16 1
    26   14   15 1
    27   15   17 2
    28   17   18 1
    29   18   19 2
    30   18   20 am
    31   20   21 1
    32   21   22 1
    33   21   42 1
    34   21   43 1
    35   22   26 1
    36   22   23 2
    37   23   24 1
    38   23   44 1
    39   24   25 2
    40   24   45 1
    41   25   26 1
    42   25   46 1
    43   27   32 ar
    44   27   28 ar
    45   28   29 ar
    46   28   47 1
    47   29   30 ar
    48   29   34 1
    49   30   31 ar
    50   30   48 1
    51   31   32 ar
    52   31   49 1
    53   32   33 1
@<TRIPOS>MOLECULE
ZINC12520238
   48    50     0     0     0
SMALL
USER_CHARGES

@<TRIPOS>ATOM
      1 C1         -0.0317    1.5372   -0.0079 C.3       1 <0>        -0.1413
      2 C2         -0.0193    0.0072   -0.0200 C.3       1 <0>         0.0118
      3 C3          0.7104   -0.5067    1.2226 C.3       1 <0>        -0.1465
      4 C4         -1.4576   -0.5144   -0.0191 C.3       1 <0>        -0.1290
      5 C5          0.6908   -0.4796   -1.2569 C.2       1 <0>         0.2819
      6 N1          2.0396   -0.4598   -1.4406 N.pl3     1 <0>        -0.5990
      7 H1          2.7012   -0.1361   -0.8093 H         1 <0>         0.4181
      8 C6          2.2912   -0.9868   -2.6917 C.ar      1 <0>         0.0704
      9 C7          3.4451   -1.2214   -3.4258 C.ar      1 <0>        -0.1577
     10 C8          3.3511   -1.7795   -4.6896 C.ar      1 <0>         0.1886
     11 C9          2.1053   -2.1042   -5.2239 C.ar      1 <0>        -0.1243
     12 C10         0.9633   -1.8776   -4.5114 C.ar      1 <0>        -0.0481
     13 C11         1.0371   -1.3159   -3.2335 C.ar      1 <0>         0.0260
     14 N2          0.1048   -0.9850   -2.3023 N.2       1 <0>        -0.4810
     15 N3          4.5119   -2.0182   -5.4339 N.am      1 <0>        -0.6790
     16 C12         4.5872   -3.0976   -6.2374 C.2       1 <0>         0.5760
     17 O1          3.6179   -3.8181   -6.3803 O.2       1 <0>        -0.5404
     18 C13         5.8452   -3.4052   -6.9432 C.ar      1 <0>        -0.2650
     19 C14         6.9621   -2.5813   -6.7754 C.ar      1 <0>        -0.0402
     20 C15         8.1344   -2.8709   -7.4354 C.ar      1 <0>        -0.1940
     21 C16         8.2087   -3.9829   -8.2698 C.ar      1 <0>         0.3171
     22 C17         7.0983   -4.8054   -8.4390 C.ar      1 <0>        -0.2711
     23 C18         5.9250   -4.5246   -7.7770 C.ar      1 <0>         0.0055
     24 N4          9.3944   -4.2723   -8.9360 N.2       1 <0>        -1.0886
     25 S1          9.4848   -5.5945   -9.9290 S.o2      1 <0>         2.5285
     26 O2          9.2974   -6.7087   -9.0672 O.2       1 <0>        -1.0245
     27 O3          8.5626   -5.3253  -10.9760 O.2       1 <0>        -1.0243
     28 C19        11.1812   -5.5800  -10.5715 C.3       1 <0>        -0.6374
     29 H2          0.9930    1.9088   -0.0086 H         1 <0>         0.0548
     30 H3         -0.5516    1.9033   -0.8932 H         1 <0>         0.0640
     31 H4         -0.5453    1.8893    0.8867 H         1 <0>         0.0694
     32 H5          0.1968   -0.1546    2.1172 H         1 <0>         0.0718
     33 H6          0.7193   -1.5967    1.2140 H         1 <0>         0.0629
     34 H7          1.7351   -0.1351    1.2220 H         1 <0>         0.0540
     35 H8         -1.9775   -0.1483   -0.9044 H         1 <0>         0.0695
     36 H9         -1.4488   -1.6044   -0.0277 H         1 <0>         0.0614
     37 H10        -1.9712   -0.1623    0.8755 H         1 <0>         0.0605
     38 H11         4.4113   -0.9699   -3.0138 H         1 <0>         0.1247
     39 H12         2.0430   -2.5388   -6.2106 H         1 <0>         0.1493
     40 H13         0.0030   -2.1328   -4.9346 H         1 <0>         0.1308
     41 H14         5.2623   -1.4067   -5.3716 H         1 <0>         0.4092
     42 H15         6.9049   -1.7181   -6.1288 H         1 <0>         0.1058
     43 H16         8.9975   -2.2348   -7.3062 H         1 <0>         0.1178
     44 H17         7.1590   -5.6670   -9.0873 H         1 <0>         0.1086
     45 H18         5.0653   -5.1656   -7.9051 H         1 <0>         0.1165
     46 H19        11.8845   -5.6500   -9.7417 H         1 <0>         0.1163
     47 H20        11.3234   -6.4283  -11.2410 H         1 <0>         0.1036
     48 H21        11.3548   -4.6528  -11.1177 H         1 <0>         0.1164
@<TRIPOS>BOND
     1    1    2 1
     2    1   29 1
     3    1   30 1
     4    1   31 1
     5    2    3 1
     6    2    4 1
     7    2    5 1
     8    3   32 1
     9    3   33 1
    10    3   34 1
    11    4   35 1
    12    4   36 1
    13    4   37 1
    14    5   14 2
    15    5    6 1
    16    6    7 1
    17    6    8 1
    18    8   13 ar
    19    8    9 ar
    20    9   10 ar
    21    9   38 1
    22   10   11 ar
    23   10   15 1
    24   11   12 ar
    25   11   39 1
    26   12   13 ar
    27   12   40 1
    28   13   14 1
    29   15   16 am
    30   15   41 1
    31   16   17 2
    32   16   18 1
    33   18   23 ar
    34   18   19 ar
    35   19   20 ar
    36   19   42 1
    37   20   21 ar
    38   20   43 1
    39   21   22 ar
    40   21   24 1
    41   22   23 ar
    42   22   44 1
    43   23   45 1
    44   24   25 1
    45   25   26 2
    46   25   27 2
    47   25   28 1
    48   28   46 1
    49   28   47 1
    50   28   48 1
@<TRIPOS>MOLECULE
ZINC64612874
   46    49     0     0     0
SMALL
USER_CHARGES

@<TRIPOS>ATOM
      1 C1         -0.0184    1.5028    0.0103 C.3       1 <0>        -0.0794
      2 C2          0.0021   -0.0041    0.0020 C.ar      1 <0>        -0.1286
      3 C3          0.0058   -0.6887   -1.1978 C.ar      1 <0>        -0.1079
      4 C4          0.0251   -2.0730   -1.2060 C.ar      1 <0>        -0.0176
      5 C5          0.0402   -2.7744   -0.0120 C.ar      1 <0>        -0.0971
      6 C6          0.0360   -2.0942    1.1898 C.ar      1 <0>        -0.2396
      7 C7          0.0230   -0.7053    1.2004 C.ar      1 <0>         0.2747
      8 N1          0.0251   -0.0143    2.4159 N.2       1 <0>        -1.0818
      9 S1          0.0500   -0.8518    3.8443 S.o2      1 <0>         2.6182
     10 O1         -1.1852   -1.5492    3.9278 O.2       1 <0>        -1.0261
     11 O2          1.3051   -1.5153    3.9042 O.2       1 <0>        -1.0263
     12 C8          0.0461    0.3367    5.1451 C.2       1 <0>        -0.6777
     13 C9          1.0692    0.6980    5.9121 C.2       1 <0>         0.1202
     14 N2          0.7235    1.6407    6.8197 N.2       1 <0>        -0.4697
     15 C10        -0.5167    1.9890    6.7514 C.2       1 <0>         0.1206
     16 C11        -1.1248    1.1733    5.6269 C.3       1 <0>        -0.0831
     17 C12        -1.2191    3.0068    7.6126 C.3       1 <0>         0.2741
     18 H1         -1.2371    3.9722    7.1067 H         1 <0>         0.1384
     19 N3         -0.5245    3.1320    8.9144 N.3       1 <0>        -0.4879
     20 N4         -1.6235    3.3015    9.8805 N.3       1 <0>        -0.4931
     21 C13        -2.6788    2.4189    9.3176 C.3       1 <0>         0.2360
     22 H2         -2.5011    1.3828    9.6056 H         1 <0>         0.1093
     23 O3         -2.5597    2.5735    7.8875 O.3       1 <0>        -0.3927
     24 C14        -4.0407    2.8661    9.7827 C.ar      1 <0>        -0.0946
     25 C15        -4.2754    4.2016   10.0512 C.ar      1 <0>        -0.0991
     26 C16        -5.5246    4.6118   10.4778 C.ar      1 <0>        -0.1181
     27 C17        -6.5394    3.6864   10.6354 C.ar      1 <0>        -0.1098
     28 C18        -6.3050    2.3510   10.3661 C.ar      1 <0>        -0.1186
     29 C19        -5.0570    1.9415    9.9354 C.ar      1 <0>        -0.0912
     30 F1          0.0287   -2.7405   -2.3806 F         1 <0>        -0.1643
     31 H3          1.0042    1.8801    0.0026 H         1 <0>         0.0512
     32 H4         -0.5455    1.8639   -0.8728 H         1 <0>         0.0411
     33 H5         -0.5286    1.8543    0.9071 H         1 <0>         0.0746
     34 H6         -0.0067   -0.1437   -2.1301 H         1 <0>         0.1175
     35 H7          0.0548   -3.8543   -0.0208 H         1 <0>         0.1146
     36 H8          0.0471   -2.6416    2.1207 H         1 <0>         0.1056
     37 H9          2.0634    0.2858    5.8220 H         1 <0>         0.1745
     38 H10        -1.4892    1.8221    4.8303 H         1 <0>         0.1361
     39 H11        -1.9250    0.5363    6.0037 H         1 <0>         0.1313
     40 H12         0.0121    2.3024    9.1191 H         1 <0>         0.3760
     41 H13        -1.9332    4.2613    9.9111 H         1 <0>         0.3624
     42 H14        -3.4825    4.9246    9.9280 H         1 <0>         0.1222
     43 H15        -5.7077    5.6551   10.6882 H         1 <0>         0.1267
     44 H16        -7.5152    4.0068   10.9694 H         1 <0>         0.1250
     45 H17        -7.0978    1.6280   10.4896 H         1 <0>         0.1271
     46 H18        -4.8749    0.8987    9.7213 H         1 <0>         0.1269
@<TRIPOS>BOND
     1    1    2 1
     2    1   31 1
     3    1   32 1
     4    1   33 1
     5    2    7 ar
     6    2    3 ar
     7    3    4 ar
     8    3   34 1
     9    4    5 ar
    10    4   30 1
    11    5    6 ar
    12    5   35 1
    13    6    7 ar
    14    6   36 1
    15    7    8 1
    16    8    9 1
    17    9   10 2
    18    9   11 2
    19    9   12 1
    20   12   16 1
    21   12   13 2
    22   13   14 1
    23   13   37 1
    24   14   15 2
    25   15   16 1
    26   15   17 1
    27   16   38 1
    28   16   39 1
    29   17   18 1
    30   17   23 1
    31   17   19 1
    32   19   20 1
    33   19   40 1
    34   20   21 1
    35   20   41 1
    36   21   22 1
    37   21   23 1
    38   21   24 1
    39   24   29 ar
    40   24   25 ar
    41   25   26 ar
    42   25   42 1
    43   26   27 ar
    44   26   43 1
    45   27   28 ar
    46   27   44 1
    47   28   29 ar
    48   28   45 1
    49   29   46 1
@<TRIPOS>MOLECULE
ZINC09607968
   51    54     0     0     0
SMALL
USER_CHARGES
4-chloro-3-(cyclopropylsulfamoyl)-N-[1-(4-imidazol-1-ylphenyl)ethyl]benzamide
@<TRIPOS>ATOM
      1 C1          4.3209   -6.9638   -1.8152 C.3       1 <0>        -0.1607
      2 C2          4.4299   -6.3129   -0.4349 C.3       1 <0>         0.1850
      3 H1          5.4421   -6.4415   -0.0514 H         1 <0>         0.1046
      4 C3          4.1181   -4.8428   -0.5467 C.ar      1 <0>        -0.1011
      5 C4          5.1474   -3.9205   -0.5905 C.ar      1 <0>        -0.0745
      6 C5          4.8647   -2.5724   -0.6939 C.ar      1 <0>        -0.1273
      7 C6          3.5457   -2.1438   -0.7533 C.ar      1 <0>         0.1397
      8 C7          2.5143   -3.0716   -0.7034 C.ar      1 <0>        -0.1271
      9 C8          2.8033   -4.4188   -0.6057 C.ar      1 <0>        -0.0877
     10 N1          3.2556   -0.7758   -0.8578 N.pl3     1 <0>        -0.4143
     11 C9          2.0086   -0.2100   -0.9256 C.2       1 <0>        -0.0554
     12 C10         2.1888    1.1213   -1.0168 C.2       1 <0>        -0.0184
     13 N2          3.5074    1.3672   -1.0054 N.2       1 <0>        -0.4825
     14 C11         4.1568    0.2390   -0.9106 C.2       1 <0>         0.1905
     15 N3          3.4770   -6.9460    0.4802 N.am      1 <0>        -0.7215
     16 C12         3.8161   -8.0773    1.1296 C.2       1 <0>         0.5630
     17 O1          4.9127   -8.5723    0.9559 O.2       1 <0>        -0.5188
     18 C13         2.8548   -8.7159    2.0527 C.ar      1 <0>        -0.1502
     19 C14         1.5966   -8.1465    2.2585 C.ar      1 <0>        -0.0211
     20 C15         0.7015   -8.7505    3.1158 C.ar      1 <0>        -0.1317
     21 C16         1.0531   -9.9131    3.7822 C.ar      1 <0>         0.0790
     22 C17         2.3018  -10.4791    3.5868 C.ar      1 <0>        -0.6809
     23 C18         3.2032   -9.8877    2.7266 C.ar      1 <0>         0.0495
     24 S1          2.7397  -11.9582    4.4384 S.o2      1 <0>         2.6937
     25 O2          4.0443  -12.3094    3.9980 O.2       1 <0>        -0.9409
     26 O3          2.4300  -11.7447    5.8087 O.2       1 <0>        -0.9358
     27 N4          1.7226  -13.1506    3.9035 N.pl3     1 <0>        -1.0813
     28 C19         1.7704  -13.5807    2.5039 C.3       1 <0>         0.0768
     29 C20         0.4564  -14.0200    1.8547 C.3       1 <0>        -0.1872
     30 C21         1.5193  -15.0613    2.2109 C.3       1 <0>        -0.1803
     31 Cl1        -0.0763  -10.6636    4.8660 Cl        1 <0>        -0.0281
     32 H2          3.3087   -6.8352   -2.1986 H         1 <0>         0.0607
     33 H3          5.0299   -6.4928   -2.4960 H         1 <0>         0.0727
     34 H4          4.5464   -8.0272   -1.7343 H         1 <0>         0.0695
     35 H5          6.1734   -4.2545   -0.5442 H         1 <0>         0.1395
     36 H6          5.6691   -1.8525   -0.7280 H         1 <0>         0.1368
     37 H7          1.4871   -2.7408   -0.7453 H         1 <0>         0.1343
     38 H8          2.0014   -5.1414   -0.5709 H         1 <0>         0.1301
     39 H9          1.0632   -0.7319   -0.9090 H         1 <0>         0.1786
     40 H10         1.4070    1.8626   -1.0909 H         1 <0>         0.1766
     41 H11         5.2309    0.1306   -0.8796 H         1 <0>         0.2097
     42 H12         2.6020   -6.5510    0.6188 H         1 <0>         0.3985
     43 H13         1.3233   -7.2374    1.7435 H         1 <0>         0.1435
     44 H14        -0.2737   -8.3137    3.2721 H         1 <0>         0.1534
     45 H15         4.1767  -10.3300    2.5751 H         1 <0>         0.1682
     46 H16         1.0953  -13.5642    4.5169 H         1 <0>         0.4221
     47 H17         2.4926  -13.0589    1.8761 H         1 <0>         0.1371
     48 H18        -0.4435  -13.9889    2.4689 H         1 <0>         0.1009
     49 H19         0.3139  -13.7870    0.7994 H         1 <0>         0.1041
     50 H20         2.0760  -15.5134    1.3901 H         1 <0>         0.1065
     51 H21         1.3189  -15.7153    3.0596 H         1 <0>         0.1019
@<TRIPOS>BOND
     1    1    2 1
     2    1   32 1
     3    1   33 1
     4    1   34 1
     5    2    3 1
     6    2    4 1
     7    2   15 1
     8    4    9 ar
     9    4    5 ar
    10    5    6 ar
    11    5   35 1
    12    6    7 ar
    13    6   36 1
    14    7    8 ar
    15    7   10 1
    16    8    9 ar
    17    8   37 1
    18    9   38 1
    19   10   14 1
    20   10   11 1
    21   11   12 2
    22   11   39 1
    23   12   13 1
    24   12   40 1
    25   13   14 2
    26   14   41 1
    27   15   16 am
    28   15   42 1
    29   16   17 2
    30   16   18 1
    31   18   23 ar
    32   18   19 ar
    33   19   20 ar
    34   19   43 1
    35   20   21 ar
    36   20   44 1
    37   21   22 ar
    38   21   31 1
    39   22   23 ar
    40   22   24 1
    41   23   45 1
    42   24   25 2
    43   24   26 2
    44   24   27 1
    45   27   28 1
    46   27   46 1
    47   28   30 1
    48   28   29 1
    49   28   47 1
    50   29   30 1
    51   29   48 1
    52   29   49 1
    53   30   50 1
    54   30   51 1
@<TRIPOS>MOLECULE
ZINC21712948
   58    60     0     0     0
SMALL
USER_CHARGES
(2R)-N-allyl-1-[4-[(2,5-dimethylphenyl)sulfonylamino]benzoyl]pyrrolidine-2-carboxamide
@<TRIPOS>ATOM
      1 C1         -6.7503    0.0957    5.4915 C.3       1 <0>        -0.1192
      2 C2         -7.2996    1.1516    4.5671 C.ar      1 <0>        -0.1096
      3 C3         -8.6502    1.4468    4.5799 C.ar      1 <0>        -0.0572
      4 C4         -9.1540    2.4148    3.7318 C.ar      1 <0>        -0.1379
      5 C5         -8.3082    3.0842    2.8669 C.ar      1 <0>         0.0152
      6 C6         -6.9572    2.7928    2.8578 C.ar      1 <0>        -0.6735
      7 C7         -6.4532    1.8245    3.7062 C.ar      1 <0>        -0.0167
      8 S1         -5.8783    3.6503    1.7599 S.o2      1 <0>         2.6944
      9 O1         -6.1556    5.0351    1.9171 O.2       1 <0>        -0.9464
     10 O2         -4.5808    3.1059    1.9580 O.2       1 <0>        -0.9512
     11 N1         -6.3294    3.2494    0.2178 N.pl3     1 <0>        -1.0703
     12 C8         -6.2397    1.9301   -0.2121 C.ar      1 <0>         0.1769
     13 C9         -5.0968    1.1852    0.0657 C.ar      1 <0>        -0.1644
     14 C10        -5.0069   -0.1222   -0.3542 C.ar      1 <0>        -0.1009
     15 C11        -6.0602   -0.6988   -1.0700 C.ar      1 <0>        -0.1389
     16 C12        -7.2043    0.0534   -1.3519 C.ar      1 <0>        -0.0386
     17 C13        -7.2905    1.3586   -0.9243 C.ar      1 <0>        -0.1391
     18 C14        -5.9648   -2.0984   -1.5264 C.2       1 <0>         0.5820
     19 O3         -6.9334   -2.6450   -2.0179 O.2       1 <0>        -0.5202
     20 N2         -4.8040   -2.7712   -1.3987 N.am      1 <0>        -0.6026
     21 C15        -3.5935   -2.2722   -0.7299 C.3       1 <0>         0.0823
     22 C16        -2.5162   -3.3703   -0.8531 C.3       1 <0>        -0.1360
     23 C17        -2.9996   -4.1957   -2.0748 C.3       1 <0>        -0.1151
     24 C18        -4.5398   -4.1318   -1.9010 C.3       1 <0>         0.1268
     25 H1         -4.9489   -4.8836   -1.2101 H         1 <0>         0.0974
     26 C19        -5.2258   -4.3443   -3.2258 C.2       1 <0>         0.5133
     27 O4         -5.4071   -3.4057   -3.9722 O.2       1 <0>        -0.5234
     28 N3         -5.6378   -5.5773   -3.5813 N.am      1 <0>        -0.7361
     29 C20        -6.3047   -5.7838   -4.8692 C.3       1 <0>         0.1520
     30 C21        -6.6616   -7.2399   -5.0223 C.2       1 <0>        -0.1810
     31 C22        -7.8996   -7.5882   -5.2716 C.2       1 <0>        -0.1669
     32 C23        -8.8586    4.1353    1.9377 C.3       1 <0>        -0.1490
     33 H2         -7.5682   -0.3247    6.0950 H         1 <0>         0.0694
     34 H3         -5.9980    0.5456    6.1561 H         1 <0>         0.0746
     35 H4         -6.2838   -0.7044    4.8981 H         1 <0>         0.0741
     36 H5         -9.3116    0.9207    5.2524 H         1 <0>         0.1320
     37 H6        -10.2091    2.6452    3.7415 H         1 <0>         0.1337
     38 H7         -5.3982    1.5937    3.6960 H         1 <0>         0.1433
     39 H8         -6.7000    4.0268   -0.4665 H         1 <0>         0.4567
     40 H9         -4.2814    1.6328    0.6145 H         1 <0>         0.1618
     41 H10        -4.1218   -0.7008   -0.1348 H         1 <0>         0.1656
     42 H11        -8.0198   -0.3894   -1.9044 H         1 <0>         0.1394
     43 H12        -8.1741    1.9402   -1.1418 H         1 <0>         0.1358
     44 H13        -3.2590   -1.3461   -1.2203 H         1 <0>         0.0849
     45 H14        -3.8169   -2.0671    0.3275 H         1 <0>         0.0854
     46 H15        -1.5342   -2.9035   -1.0195 H         1 <0>         0.0916
     47 H16        -2.4885   -3.9624    0.0735 H         1 <0>         0.0841
     48 H17        -2.6462   -3.7201   -3.0016 H         1 <0>         0.0875
     49 H18        -2.5964   -5.2171   -2.0100 H         1 <0>         0.0958
     50 H19        -5.4733   -6.4286   -2.9044 H         1 <0>         0.4195
     51 H20        -7.2204   -5.1756   -4.9096 H         1 <0>         0.0699
     52 H21        -5.6293   -5.4842   -5.6841 H         1 <0>         0.0721
     53 H22        -5.8825   -8.0103   -4.9247 H         1 <0>         0.1177
     54 H23        -8.1601   -8.6511   -5.3833 H         1 <0>         0.1063
     55 H24        -8.6787   -6.8178   -5.3692 H         1 <0>         0.1024
     56 H25        -8.0413    4.5532    1.3317 H         1 <0>         0.0692
     57 H26        -9.3252    4.9380    2.5275 H         1 <0>         0.0934
     58 H27        -9.6110    3.6818    1.2757 H         1 <0>         0.0879
@<TRIPOS>BOND
     1    1    2 1
     2    1   33 1
     3    1   34 1
     4    1   35 1
     5    2    7 ar
     6    2    3 ar
     7    3    4 ar
     8    3   36 1
     9    4    5 ar
    10    4   37 1
    11    5    6 ar
    12    5   32 1
    13    6    7 ar
    14    6    8 1
    15    7   38 1
    16    8    9 2
    17    8   10 2
    18    8   11 1
    19   11   12 1
    20   11   39 1
    21   12   17 ar
    22   12   13 ar
    23   13   14 ar
    24   13   40 1
    25   14   15 ar
    26   14   41 1
    27   15   16 ar
    28   15   18 1
    29   16   17 ar
    30   16   42 1
    31   17   43 1
    32   18   19 2
    33   18   20 am
    34   20   24 1
    35   20   21 1
    36   21   22 1
    37   21   44 1
    38   21   45 1
    39   22   23 1
    40   22   46 1
    41   22   47 1
    42   23   24 1
    43   23   48 1
    44   23   49 1
    45   24   25 1
    46   24   26 1
    47   26   27 2
    48   26   28 am
    49   28   29 1
    50   28   50 1
    51   29   30 1
    52   29   51 1
    53   29   52 1
    54   30   31 2
    55   30   53 1
    56   31   54 1
    57   31   55 1
    58   32   56 1
    59   32   57 1
    60   32   58 1
@<TRIPOS>MOLECULE
ZINC25391922
   50    51     0     0     0
SMALL
USER_CHARGES
(3R)-1-(4-bromophenyl)sulfonyl-N-(2-oxo-2-propylamino-ethyl)piperidine-3-carboxamide
@<TRIPOS>ATOM
      1 C1          2.5343    5.7167    0.0086 C.3       1 <0>        -0.1532
      2 C2          2.5551    4.1869    0.0001 C.3       1 <0>        -0.1361
      3 C3          1.1197    3.6573    0.0110 C.3       1 <0>         0.1190
      4 N1          1.1395    2.1925    0.0030 N.am      1 <0>        -0.7373
      5 C4         -0.0184    1.5028    0.0103 C.2       1 <0>         0.5107
      6 O1         -1.0768    2.0948    0.0185 O.2       1 <0>        -0.5417
      7 C5          0.0021   -0.0041    0.0020 C.3       1 <0>         0.1013
      8 N2         -1.3723   -0.5112    0.0124 N.am      1 <0>        -0.7300
      9 C6         -1.6006   -1.8394    0.0075 C.2       1 <0>         0.5262
     10 O2         -0.6682   -2.6149   -0.0056 O.2       1 <0>        -0.5427
     11 C7         -3.0144   -2.3611    0.0182 C.3       1 <0>        -0.1178
     12 H1         -3.5322   -1.9861   -0.8770 H         1 <0>         0.1079
     13 C8         -3.7301   -1.8712    1.2791 C.3       1 <0>        -0.1109
     14 C9         -5.1758   -2.3731    1.2748 C.3       1 <0>        -0.1316
     15 C10        -5.1802   -3.9051    1.2806 C.3       1 <0>         0.1101
     16 N3         -4.3716   -4.3846    0.1515 N.pl3     1 <0>        -0.9948
     17 C11        -2.9943   -3.8928    0.0097 C.3       1 <0>         0.1346
     18 S1         -5.0003   -5.4593   -0.9403 S.o2      1 <0>         2.6908
     19 O3         -6.4125   -5.3097   -0.8903 O.2       1 <0>        -0.9480
     20 O4         -4.2592   -5.2980   -2.1419 O.2       1 <0>        -0.9474
     21 C12        -4.6439   -7.0780   -0.3423 C.ar      1 <0>        -0.6676
     22 C13        -3.4717   -7.7094   -0.7140 C.ar      1 <0>        -0.0122
     23 C14        -3.1895   -8.9772   -0.2413 C.ar      1 <0>        -0.1113
     24 C15        -4.0852   -9.6184    0.5954 C.ar      1 <0>        -0.0389
     25 C16        -5.2605   -8.9883    0.9629 C.ar      1 <0>        -0.1122
     26 C17        -5.5394   -7.7184    0.4939 C.ar      1 <0>        -0.0137
     27 Br1        -3.7027  -11.3556    1.2372 Br        1 <0>        -0.0318
     28 H2          3.5663    6.0975    0.0008 H         1 <0>         0.0621
     29 H3          2.0195    6.0714    0.9137 H         1 <0>         0.0586
     30 H4          2.0022    6.0811   -0.8825 H         1 <0>         0.0587
     31 H5          3.0699    3.8322   -0.9050 H         1 <0>         0.0704
     32 H6          3.0872    3.8225    0.8912 H         1 <0>         0.0703
     33 H7          0.6049    4.0121    0.9160 H         1 <0>         0.0680
     34 H8          0.5876    4.0217   -0.8801 H         1 <0>         0.0682
     35 H9          2.0994    1.6555   -0.0090 H         1 <0>         0.4264
     36 H10         0.5170   -0.3588   -0.9030 H         1 <0>         0.0989
     37 H11         0.5342   -0.3685    0.8931 H         1 <0>         0.0983
     38 H12        -2.2180    0.1921    0.0242 H         1 <0>         0.4364
     39 H13        -3.2112   -2.2575    2.1688 H         1 <0>         0.0738
     40 H14        -3.7245   -0.7714    1.3000 H         1 <0>         0.0756
     41 H15        -5.6961   -2.0001    2.1693 H         1 <0>         0.0854
     42 H16        -5.6884   -2.0069    0.3731 H         1 <0>         0.0749
     43 H17        -4.7530   -4.2694    2.2265 H         1 <0>         0.0748
     44 H18        -6.2134   -4.2692    1.1806 H         1 <0>         0.0990
     45 H19        -2.5671   -4.2486   -0.9395 H         1 <0>         0.1035
     46 H20        -2.3805   -4.2561    0.8471 H         1 <0>         0.0844
     47 H21        -2.7744   -7.2104   -1.3706 H         1 <0>         0.1506
     48 H22        -2.2719   -9.4690   -0.5287 H         1 <0>         0.1453
     49 H23        -5.9599   -9.4884    1.6164 H         1 <0>         0.1449
     50 H24        -6.4568   -7.2262    0.7811 H         1 <0>         0.1499
@<TRIPOS>BOND
     1    1    2 1
     2    1   28 1
     3    1   29 1
     4    1   30 1
     5    2    3 1
     6    2   31 1
     7    2   32 1
     8    3    4 1
     9    3   33 1
    10    3   34 1
    11    4    5 am
    12    4   35 1
    13    5    6 2
    14    5    7 1
    15    7    8 1
    16    7   36 1
    17    7   37 1
    18    8    9 am
    19    8   38 1
    20    9   10 2
    21    9   11 1
    22   11   12 1
    23   11   17 1
    24   11   13 1
    25   13   14 1
    26   13   39 1
    27   13   40 1
    28   14   15 1
    29   14   41 1
    30   14   42 1
    31   15   16 1
    32   15   43 1
    33   15   44 1
    34   16   17 1
    35   16   18 1
    36   17   45 1
    37   17   46 1
    38   18   19 2
    39   18   20 2
    40   18   21 1
    41   21   26 ar
    42   21   22 ar
    43   22   23 ar
    44   22   47 1
    45   23   24 ar
    46   23   48 1
    47   24   25 ar
    48   24   27 1
    49   25   26 ar
    50   25   49 1
    51   26   50 1
@<TRIPOS>MOLECULE
ZINC23532864
   53    55     0     0     0
SMALL
USER_CHARGES

@<TRIPOS>ATOM
      1 C1         -1.3772    1.3240    1.1303 C.3       1 <0>         0.0887
      2 N1         -1.4682   -0.1381    1.1376 N.am      1 <0>        -0.6188
      3 C2         -2.0447   -0.8304    2.2929 C.3       1 <0>         0.0705
      4 C3         -1.0216   -0.8464    0.0816 C.2       1 <0>         0.5592
      5 O1         -0.4504   -0.2819   -0.8313 O.2       1 <0>        -0.5319
      6 C4         -1.2258   -2.3074    0.0332 C.ar      1 <0>        -0.1486
      7 C5         -2.3675   -2.8742    0.6062 C.ar      1 <0>        -0.0717
      8 C6         -2.5552   -4.2372    0.5590 C.ar      1 <0>        -0.1291
      9 C7         -1.6096   -5.0503   -0.0580 C.ar      1 <0>         0.1707
     10 C8         -0.4719   -4.4892   -0.6295 C.ar      1 <0>        -0.1493
     11 C9         -0.2809   -3.1263   -0.5908 C.ar      1 <0>        -0.0404
     12 N2         -1.8024   -6.4305   -0.1033 N.am      1 <0>        -0.6656
     13 C10        -3.0482   -6.9338   -0.2087 C.2       1 <0>         0.5382
     14 O2         -3.9925   -6.1883   -0.3615 O.2       1 <0>        -0.4963
     15 C11        -3.2678   -8.4230   -0.1367 C.3       1 <0>        -0.1605
     16 S1         -5.0375   -8.7823   -0.3095 S.3       1 <0>         0.1270
     17 C12        -5.1279  -10.5389   -0.2059 C.2       1 <0>         0.0213
     18 N3         -4.1585  -11.4174   -0.0358 N.2       1 <0>        -0.2753
     19 N4         -4.4534  -12.7601    0.0175 N.2       1 <0>        -0.3723
     20 C13        -5.7032  -13.1628   -0.1015 C.2       1 <0>         0.3565
     21 S2         -6.5576  -11.6061   -0.2951 S.3       1 <0>        -0.0029
     22 N5         -6.2188  -14.4534   -0.0773 N.pl3     1 <0>        -0.6660
     23 C14        -5.3215  -15.5974    0.1023 C.3       1 <0>         0.1580
     24 C15        -4.7446  -16.0107   -1.2532 C.3       1 <0>        -0.1318
     25 C16        -3.8075  -17.2055   -1.0657 C.3       1 <0>        -0.1169
     26 C17        -4.5879  -18.3765   -0.4651 C.3       1 <0>        -0.1239
     27 C18        -5.1648  -17.9632    0.8903 C.3       1 <0>        -0.1152
     28 C19        -6.1019  -16.7684    0.7028 C.3       1 <0>        -0.1273
     29 H1         -1.7848    1.7181    2.0613 H         1 <0>         0.0775
     30 H2         -0.3332    1.6226    1.0356 H         1 <0>         0.0636
     31 H3         -1.9460    1.7192    0.2886 H         1 <0>         0.0627
     32 H4         -3.1235   -0.9174    2.1632 H         1 <0>         0.0618
     33 H5         -1.6074   -1.8253    2.3757 H         1 <0>         0.0805
     34 H6         -1.8323   -0.2635    3.1993 H         1 <0>         0.0738
     35 H7         -3.1015   -2.2437    1.0859 H         1 <0>         0.1409
     36 H8         -3.4372   -4.6759    1.0016 H         1 <0>         0.1422
     37 H9          0.2601   -5.1231   -1.1077 H         1 <0>         0.1357
     38 H10         0.6003   -2.6910   -1.0385 H         1 <0>         0.1384
     39 H11        -1.0399   -7.0284   -0.0590 H         1 <0>         0.4181
     40 H12        -2.7178   -8.9107   -0.9416 H         1 <0>         0.1322
     41 H13        -2.9133   -8.7965    0.8239 H         1 <0>         0.1334
     42 H14        -7.1728  -14.5966   -0.1793 H         1 <0>         0.4197
     43 H15        -4.5089  -15.3199    0.7736 H         1 <0>         0.0928
     44 H16        -5.5572  -16.2882   -1.9246 H         1 <0>         0.0661
     45 H17        -4.1886  -15.1765   -1.6810 H         1 <0>         0.0687
     46 H18        -3.3965  -17.5000   -2.0313 H         1 <0>         0.0674
     47 H19        -2.9948  -16.9280   -0.3943 H         1 <0>         0.0662
     48 H20        -5.4005  -18.6540   -1.1365 H         1 <0>         0.0638
     49 H21        -3.9202  -19.2277   -0.3315 H         1 <0>         0.0665
     50 H22        -5.7208  -18.7974    1.3182 H         1 <0>         0.0708
     51 H23        -4.3522  -17.6857    1.5617 H         1 <0>         0.0671
     52 H24        -6.5129  -16.4739    1.6685 H         1 <0>         0.0721
     53 H25        -6.9146  -17.0459    0.0314 H         1 <0>         0.0715
@<TRIPOS>BOND
     1    1    2 1
     2    1   29 1
     3    1   30 1
     4    1   31 1
     5    2    3 1
     6    2    4 am
     7    3   32 1
     8    3   33 1
     9    3   34 1
    10    4    5 2
    11    4    6 1
    12    6   11 ar
    13    6    7 ar
    14    7    8 ar
    15    7   35 1
    16    8    9 ar
    17    8   36 1
    18    9   10 ar
    19    9   12 1
    20   10   11 ar
    21   10   37 1
    22   11   38 1
    23   12   13 am
    24   12   39 1
    25   13   14 2
    26   13   15 1
    27   15   16 1
    28   15   40 1
    29   15   41 1
    30   16   17 1
    31   17   21 1
    32   17   18 2
    33   18   19 1
    34   19   20 2
    35   20   21 1
    36   20   22 1
    37   22   23 1
    38   22   42 1
    39   23   28 1
    40   23   24 1
    41   23   43 1
    42   24   25 1
    43   24   44 1
    44   24   45 1
    45   25   26 1
    46   25   46 1
    47   25   47 1
    48   26   27 1
    49   26   48 1
    50   26   49 1
    51   27   28 1
    52   27   50 1
    53   27   51 1
    54   28   52 1
    55   28   53 1
@<TRIPOS>MOLECULE
ZINC59576363
   49    50     0     0     0
SMALL
USER_CHARGES

@<TRIPOS>ATOM
      1 C1          0.0772    1.3161    0.5945 C.3       1 <0>         0.0908
      2 N1         -0.0003   -0.0009   -0.0425 N.pl3     1 <0>        -0.6344
      3 C2          1.1803   -0.5675   -0.6993 C.3       1 <0>         0.0902
      4 C3         -1.2017   -0.7174   -0.0236 C.ar      1 <0>         0.2024
      5 C4         -1.2736   -1.9687   -0.6226 C.ar      1 <0>        -0.1424
      6 C5         -2.4590   -2.6758   -0.6036 C.ar      1 <0>        -0.0797
      7 C6         -3.5797   -2.1363    0.0145 C.ar      1 <0>         0.1383
      8 C7         -3.5080   -0.8854    0.6129 C.ar      1 <0>        -0.1647
      9 C8         -2.3208   -0.1804    0.5989 C.ar      1 <0>        -0.1316
     10 C9         -4.7243   -0.2998    1.2827 C.3       1 <0>         0.5078
     11 F1         -4.4075    0.9576    1.8079 F         1 <0>        -0.1708
     12 F2         -5.7545   -0.1675    0.3454 F         1 <0>        -0.1790
     13 F3         -5.1401   -1.1456    2.3165 F         1 <0>        -0.1730
     14 N2         -4.7824   -2.8540    0.0338 N.am      1 <0>        -0.6648
     15 C10        -4.7671   -4.1977   -0.0696 C.2       1 <0>         0.5586
     16 O1         -3.7081   -4.7946   -0.0785 O.2       1 <0>        -0.5008
     17 C11        -6.0380   -4.9456   -0.1724 C.ar      1 <0>        -0.0796
     18 C12        -7.2555   -4.2628   -0.1684 C.ar      1 <0>        -0.1068
     19 C13        -8.4379   -4.9668   -0.2651 C.ar      1 <0>        -0.0211
     20 C14        -8.4188   -6.3466   -0.3659 C.ar      1 <0>        -0.6565
     21 C15        -7.2155   -7.0295   -0.3700 C.ar      1 <0>        -0.0267
     22 C16        -6.0256   -6.3373   -0.2797 C.ar      1 <0>        -0.0753
     23 S1         -9.9337   -7.2380   -0.4890 S.o2      1 <0>         2.6966
     24 O2         -9.6694   -8.5542   -0.0231 O.2       1 <0>        -0.9452
     25 O3        -10.9380   -6.4136    0.0863 O.2       1 <0>        -0.9467
     26 N3        -10.2948   -7.3697   -2.0998 N.pl3     1 <0>        -1.1151
     27 C17        -9.4225   -8.1455   -2.9850 C.3       1 <0>         0.1161
     28 C18       -10.1500   -8.4240   -4.3018 C.3       1 <0>        -0.0303
     29 C19        -9.2735   -9.2034   -5.1912 C.1       1 <0>         0.2008
     30 N4         -8.5971   -9.8050   -5.8776 N.1       1 <0>        -0.4181
     31 H1          1.0840    1.7171    0.4785 H         1 <0>         0.0777
     32 H2         -0.6388    1.9900    0.1240 H         1 <0>         0.0569
     33 H3         -0.1561    1.2210    1.6550 H         1 <0>         0.0569
     34 H4          1.7517   -1.1520    0.0218 H         1 <0>         0.0523
     35 H5          0.8653   -1.2111   -1.5206 H         1 <0>         0.0701
     36 H6          1.8022    0.2391   -1.0876 H         1 <0>         0.0709
     37 H7         -0.4023   -2.3881   -1.1036 H         1 <0>         0.1381
     38 H8         -2.5150   -3.6485   -1.0696 H         1 <0>         0.1573
     39 H9         -2.2638    0.7905    1.0686 H         1 <0>         0.1425
     40 H10        -5.6263   -2.3839    0.1217 H         1 <0>         0.4101
     41 H11        -7.2717   -3.1858   -0.0894 H         1 <0>         0.1363
     42 H12        -9.3806   -4.4398   -0.2617 H         1 <0>         0.1519
     43 H13        -7.2076   -8.1067   -0.4486 H         1 <0>         0.1521
     44 H14        -5.0869   -6.8712   -0.2879 H         1 <0>         0.1511
     45 H15       -11.0838   -6.9332   -2.4572 H         1 <0>         0.4244
     46 H16        -8.5125   -7.5799   -3.1852 H         1 <0>         0.0781
     47 H17        -9.1652   -9.0898   -2.5052 H         1 <0>         0.0941
     48 H18       -11.0600   -8.9896   -4.1016 H         1 <0>         0.1214
     49 H19       -10.4072   -7.4797   -4.7816 H         1 <0>         0.1191
@<TRIPOS>BOND
     1    1    2 1
     2    1   31 1
     3    1   32 1
     4    1   33 1
     5    2    3 1
     6    2    4 1
     7    3   34 1
     8    3   35 1
     9    3   36 1
    10    4    9 ar
    11    4    5 ar
    12    5    6 ar
    13    5   37 1
    14    6    7 ar
    15    6   38 1
    16    7    8 ar
    17    7   14 1
    18    8    9 ar
    19    8   10 1
    20    9   39 1
    21   10   11 1
    22   10   12 1
    23   10   13 1
    24   14   15 am
    25   14   40 1
    26   15   16 2
    27   15   17 1
    28   17   22 ar
    29   17   18 ar
    30   18   19 ar
    31   18   41 1
    32   19   20 ar
    33   19   42 1
    34   20   21 ar
    35   20   23 1
    36   21   22 ar
    37   21   43 1
    38   22   44 1
    39   23   24 2
    40   23   25 2
    41   23   26 1
    42   26   27 1
    43   26   45 1
    44   27   28 1
    45   27   46 1
    46   27   47 1
    47   28   29 1
    48   28   48 1
    49   28   49 1
    50   29   30 3
@<TRIPOS>MOLECULE
ZINC10454597
   60    62     0     0     0
SMALL
USER_CHARGES
3-methyl-N-[[4-(2-oxopyrrolidin-1-yl)phenyl]methyl]-2-(p-tolylsulfonylamino)butanamide
@<TRIPOS>ATOM
      1 C1         10.2510    2.8433   -1.3702 C.3       1 <0>        -0.1259
      2 C2          9.7768    1.5422   -1.9644 C.ar      1 <0>        -0.0262
      3 C3         10.1988    0.3414   -1.4249 C.ar      1 <0>        -0.1404
      4 C4          9.7638   -0.8521   -1.9700 C.ar      1 <0>        -0.0043
      5 C5          8.9061   -0.8449   -3.0541 C.ar      1 <0>        -0.6829
      6 C6          8.4879    0.3558   -3.5966 C.ar      1 <0>        -0.0220
      7 C7          8.9194    1.5493   -3.0488 C.ar      1 <0>        -0.1424
      8 S1          8.3516   -2.3663   -3.7488 S.o2      1 <0>         2.6926
      9 O1          9.3218   -3.3465   -3.4066 O.2       1 <0>        -0.9535
     10 O2          7.9898   -2.0900   -5.0949 O.2       1 <0>        -0.9509
     11 N1          6.9569   -2.7851   -2.9603 N.pl3     1 <0>        -1.0901
     12 C8          5.7681   -1.9366   -3.0738 C.3       1 <0>         0.1409
     13 H1          5.9618   -1.1330   -3.7844 H         1 <0>         0.1151
     14 C9          4.5868   -2.7766   -3.5634 C.3       1 <0>        -0.0956
     15 C10         4.9158   -3.3688   -4.9352 C.3       1 <0>        -0.1505
     16 C11         4.3198   -3.9090   -2.5698 C.3       1 <0>        -0.1527
     17 C12         5.4411   -1.3472   -1.7260 C.2       1 <0>         0.5019
     18 O3          6.1329   -1.6101   -0.7651 O.2       1 <0>        -0.5205
     19 N2          4.3798   -0.5279   -1.5883 N.am      1 <0>        -0.7242
     20 C13         4.0619    0.0450   -0.2780 C.3       1 <0>         0.1663
     21 C14         2.8390    0.9179   -0.3947 C.ar      1 <0>        -0.1383
     22 C15         1.5821    0.3737   -0.2046 C.ar      1 <0>        -0.0695
     23 C16         0.4594    1.1709   -0.3114 C.ar      1 <0>        -0.1598
     24 C17         0.5937    2.5205   -0.6096 C.ar      1 <0>         0.1759
     25 C18         1.8574    3.0642   -0.7995 C.ar      1 <0>        -0.1586
     26 C19         2.9762    2.2616   -0.6914 C.ar      1 <0>        -0.0685
     27 N3         -0.5420    3.3297   -0.7242 N.am      1 <0>        -0.5618
     28 C20        -1.9219    2.8331   -0.6659 C.3       1 <0>         0.0934
     29 C21        -2.7918    3.9624   -1.2612 C.3       1 <0>        -0.1317
     30 C22        -1.9170    5.2089   -0.9931 C.3       1 <0>        -0.1544
     31 C23        -0.5096    4.6625   -0.8960 C.2       1 <0>         0.5158
     32 O4          0.5010    5.3295   -0.9656 O.2       1 <0>        -0.5066
     33 H2         11.1716    3.1542   -1.8640 H         1 <0>         0.0803
     34 H3          9.4867    3.6075   -1.5120 H         1 <0>         0.0729
     35 H4         10.4376    2.7095   -0.3046 H         1 <0>         0.0733
     36 H5         10.8687    0.3358   -0.5778 H         1 <0>         0.1329
     37 H6         10.0938   -1.7902   -1.5487 H         1 <0>         0.1397
     38 H7          7.8213    0.3614   -4.4463 H         1 <0>         0.1377
     39 H8          8.5894    2.4874   -3.4701 H         1 <0>         0.1322
     40 H9          6.9271   -3.5923   -2.4232 H         1 <0>         0.4250
     41 H10         3.7010   -2.1464   -3.6426 H         1 <0>         0.0877
     42 H11         4.0426   -3.8928   -5.3237 H         1 <0>         0.0628
     43 H12         5.1930   -2.5672   -5.6199 H         1 <0>         0.0671
     44 H13         5.7463   -4.0681   -4.8393 H         1 <0>         0.0592
     45 H14         4.0854   -3.4871   -1.5924 H         1 <0>         0.0567
     46 H15         3.4781   -4.5074   -2.9185 H         1 <0>         0.0653
     47 H16         5.2056   -4.5392   -2.4905 H         1 <0>         0.0607
     48 H17         3.8265   -0.3177   -2.3567 H         1 <0>         0.4024
     49 H18         4.9035    0.6435    0.0708 H         1 <0>         0.0761
     50 H19         3.8682   -0.7585    0.4326 H         1 <0>         0.0771
     51 H20         1.4783   -0.6760    0.0273 H         1 <0>         0.1291
     52 H21        -0.5220    0.7452   -0.1627 H         1 <0>         0.1279
     53 H22         1.9652    4.1134   -1.0319 H         1 <0>         0.1561
     54 H23         3.9593    2.6838   -0.8390 H         1 <0>         0.1281
     55 H24        -2.0218    1.9260   -1.2619 H         1 <0>         0.0890
     56 H25        -2.2099    2.6400    0.3675 H         1 <0>         0.0831
     57 H26        -2.9439    3.8152   -2.3304 H         1 <0>         0.0876
     58 H27        -3.7460    4.0360   -0.7395 H         1 <0>         0.0986
     59 H28        -1.9983    5.9166   -1.8181 H         1 <0>         0.1098
     60 H29        -2.2057    5.6831   -0.0551 H         1 <0>         0.1110
@<TRIPOS>BOND
     1    1    2 1
     2    1   33 1
     3    1   34 1
     4    1   35 1
     5    2    7 ar
     6    2    3 ar
     7    3    4 ar
     8    3   36 1
     9    4    5 ar
    10    4   37 1
    11    5    6 ar
    12    5    8 1
    13    6    7 ar
    14    6   38 1
    15    7   39 1
    16    8    9 2
    17    8   10 2
    18    8   11 1
    19   11   12 1
    20   11   40 1
    21   12   13 1
    22   12   14 1
    23   12   17 1
    24   14   15 1
    25   14   16 1
    26   14   41 1
    27   15   42 1
    28   15   43 1
    29   15   44 1
    30   16   45 1
    31   16   46 1
    32   16   47 1
    33   17   18 2
    34   17   19 am
    35   19   20 1
    36   19   48 1
    37   20   21 1
    38   20   49 1
    39   20   50 1
    40   21   26 ar
    41   21   22 ar
    42   22   23 ar
    43   22   51 1
    44   23   24 ar
    45   23   52 1
    46   24   25 ar
    47   24   27 1
    48   25   26 ar
    49   25   53 1
    50   26   54 1
    51   27   31 am
    52   27   28 1
    53   28   29 1
    54   28   55 1
    55   28   56 1
    56   29   30 1
    57   29   57 1
    58   29   58 1
    59   30   31 1
    60   30   59 1
    61   30   60 1
    62   31   32 2
@<TRIPOS>MOLECULE
ZINC15569235
   49    51     0     0     0
SMALL
USER_CHARGES
(2R)-2-[(2-fluorophenyl)sulfonylamino]-N-(2-methyl-1,3-benzoxazol-5-yl)-4-methylsulfanyl-butanamide
@<TRIPOS>ATOM
      1 C1          7.3258   -5.5035   -2.3242 C.3       1 <0>        -0.0666
      2 C2          6.2081   -4.5083   -2.1471 C.2       1 <0>         0.2537
      3 N1          5.2893   -4.5789   -1.2313 N.2       1 <0>        -0.4831
      4 C3          4.4495   -3.5172   -1.3696 C.ar      1 <0>         0.0422
      5 C4          3.3128   -3.0903   -0.6819 C.ar      1 <0>        -0.0900
      6 C5          2.6654   -1.9351   -1.0801 C.ar      1 <0>         0.1491
      7 C6          3.1405   -1.2023   -2.1653 C.ar      1 <0>        -0.0925
      8 C7          4.2656   -1.6144   -2.8463 C.ar      1 <0>        -0.0713
      9 C8          4.9254   -2.7711   -2.4584 C.ar      1 <0>        -0.0033
     10 O1          6.0198   -3.4221   -2.9126 O.3       1 <0>        -0.2131
     11 N2          1.5236   -1.5031   -0.3929 N.am      1 <0>        -0.6674
     12 C9          1.2918   -0.1851   -0.2327 C.2       1 <0>         0.5125
     13 O2          2.0270    0.6275   -0.7527 O.2       1 <0>        -0.4972
     14 C10         0.1193    0.2790    0.5924 C.3       1 <0>         0.1249
     15 H1         -0.8048   -0.0997    0.1557 H         1 <0>         0.1378
     16 C11         0.2613   -0.2478    2.0218 C.3       1 <0>        -0.1113
     17 C12        -0.9799    0.1331    2.8313 C.3       1 <0>        -0.0964
     18 S1         -0.8511   -0.5654    4.5005 S.3       1 <0>        -0.2471
     19 C13        -2.4428   -0.1597    5.2701 C.3       1 <0>        -0.1222
     20 N3          0.0856    1.7434    0.6127 N.pl3     1 <0>        -1.0905
     21 S2         -1.1615    2.5531   -0.1163 S.o2      1 <0>         2.6927
     22 O3         -0.8947    3.9395    0.0445 O.2       1 <0>        -0.9404
     23 O4         -1.3429    1.9553   -1.3927 O.2       1 <0>        -0.9357
     24 C14        -2.6191    2.2097    0.8122 C.ar      1 <0>        -0.7176
     25 C15        -3.1958    3.2000    1.5851 C.ar      1 <0>         0.0092
     26 C16        -4.3425    2.9325    2.3091 C.ar      1 <0>        -0.1437
     27 C17        -4.9074    1.6711    2.2702 C.ar      1 <0>        -0.0340
     28 C18        -4.3294    0.6780    1.5028 C.ar      1 <0>        -0.1693
     29 C19        -3.1839    0.9464    0.7725 C.ar      1 <0>         0.1863
     30 F1         -2.6176   -0.0240    0.0222 F         1 <0>        -0.1180
     31 H2          7.0043   -6.2940   -3.0022 H         1 <0>         0.1006
     32 H3          8.1981   -4.9998   -2.7409 H         1 <0>         0.0946
     33 H4          7.5835   -5.9363   -1.3576 H         1 <0>         0.1067
     34 H5          2.9403   -3.6595    0.1570 H         1 <0>         0.1413
     35 H6          2.6265   -0.3035   -2.4723 H         1 <0>         0.1580
     36 H7          4.6307   -1.0394   -3.6844 H         1 <0>         0.1418
     37 H8          0.8998   -2.1526   -0.0324 H         1 <0>         0.4153
     38 H9          0.3625   -1.3328    2.0008 H         1 <0>         0.0970
     39 H10         1.1454    0.1907    2.4845 H         1 <0>         0.0951
     40 H11        -1.0523    1.2188    2.8963 H         1 <0>         0.0872
     41 H12        -1.8693   -0.2615    2.3400 H         1 <0>         0.0811
     42 H13        -3.2428   -0.6858    4.7491 H         1 <0>         0.0768
     43 H14        -2.4287   -0.4647    6.3164 H         1 <0>         0.1049
     44 H15        -2.6135    0.9150    5.2070 H         1 <0>         0.0771
     45 H16         0.7958    2.2389    1.0497 H         1 <0>         0.4293
     46 H17        -2.7529    4.1843    1.6197 H         1 <0>         0.1566
     47 H18        -4.7949    3.7081    2.9092 H         1 <0>         0.1445
     48 H19        -5.8006    1.4619    2.8401 H         1 <0>         0.1453
     49 H20        -4.7707   -0.3073    1.4728 H         1 <0>         0.1490
@<TRIPOS>BOND
     1    1    2 1
     2    1   31 1
     3    1   32 1
     4    1   33 1
     5    2   10 1
     6    2    3 2
     7    3    4 1
     8    4    9 ar
     9    4    5 ar
    10    5    6 ar
    11    5   34 1
    12    6    7 ar
    13    6   11 1
    14    7    8 ar
    15    7   35 1
    16    8    9 ar
    17    8   36 1
    18    9   10 1
    19   11   12 am
    20   11   37 1
    21   12   13 2
    22   12   14 1
    23   14   15 1
    24   14   16 1
    25   14   20 1
    26   16   17 1
    27   16   38 1
    28   16   39 1
    29   17   18 1
    30   17   40 1
    31   17   41 1
    32   18   19 1
    33   19   42 1
    34   19   43 1
    35   19   44 1
    36   20   21 1
    37   20   45 1
    38   21   22 2
    39   21   23 2
    40   21   24 1
    41   24   29 ar
    42   24   25 ar
    43   25   26 ar
    44   25   46 1
    45   26   27 ar
    46   26   47 1
    47   27   28 ar
    48   27   48 1
    49   28   29 ar
    50   28   49 1
    51   29   30 1
@<TRIPOS>MOLECULE
ZINC31529625
   57    59     0     0     0
SMALL
USER_CHARGES
N-methyl-N-[[4-(methylcarbamoyl)phenyl]methyl]-4-(p-tolylsulfamoyl)benzamide
@<TRIPOS>ATOM
      1 C1         -2.2279   10.4582    6.2744 C.3       1 <0>        -0.1218
      2 C2         -1.0216    9.6636    6.7039 C.ar      1 <0>        -0.0744
      3 C3         -0.9893    9.0824    7.9583 C.ar      1 <0>        -0.1127
      4 C4          0.1144    8.3532    8.3549 C.ar      1 <0>        -0.1018
      5 C5          1.1929    8.2038    7.4922 C.ar      1 <0>         0.1163
      6 C6          1.1593    8.7934    6.2349 C.ar      1 <0>        -0.1072
      7 C7          0.0502    9.5169    5.8426 C.ar      1 <0>        -0.1153
      8 N1          2.3109    7.4674    7.8903 N.pl3     1 <0>        -1.0740
      9 S1          2.2322    5.8147    7.9590 S.o2      1 <0>         2.6905
     10 O1          1.0830    5.4946    8.7311 O.2       1 <0>        -0.9465
     11 O2          3.5333    5.3602    8.3051 O.2       1 <0>        -0.9514
     12 C8          1.9163    5.2397    6.3237 C.ar      1 <0>        -0.6573
     13 C9          2.9681    5.0516    5.4446 C.ar      1 <0>        -0.0229
     14 C10         2.7277    4.6017    4.1628 C.ar      1 <0>        -0.1250
     15 C11         1.4199    4.3365    3.7534 C.ar      1 <0>        -0.0702
     16 C12         0.3629    4.5338    4.6434 C.ar      1 <0>        -0.0859
     17 C13         0.6176    4.9787    5.9242 C.ar      1 <0>        -0.0181
     18 C14         1.1548    3.8545    2.3811 C.2       1 <0>         0.5580
     19 O3          0.1869    4.2630    1.7698 O.2       1 <0>        -0.5190
     20 N2          1.9864    2.9622    1.8079 N.am      1 <0>        -0.6037
     21 C15         3.2011    2.5378    2.5084 C.3       1 <0>         0.0585
     22 C16         1.6757    2.4165    0.4843 C.3       1 <0>         0.1491
     23 C17         2.2907    3.2920   -0.5770 C.ar      1 <0>        -0.0861
     24 C18         3.5737    3.0328   -1.0254 C.ar      1 <0>        -0.1119
     25 C19         4.1423    3.8301   -1.9971 C.ar      1 <0>        -0.0634
     26 C20         3.4204    4.9003   -2.5279 C.ar      1 <0>        -0.1285
     27 C21         2.1266    5.1563   -2.0711 C.ar      1 <0>        -0.0888
     28 C22         1.5696    4.3513   -1.0990 C.ar      1 <0>        -0.1011
     29 C23         4.0237    5.7592   -3.5691 C.2       1 <0>         0.5561
     30 O4          5.1507    5.5341   -3.9647 O.2       1 <0>        -0.5387
     31 N3          3.3239    6.7918   -4.0796 N.am      1 <0>        -0.7419
     32 C24         3.9218    7.6429   -5.1113 C.3       1 <0>         0.0873
     33 H1         -2.9711   10.4637    7.0854 H         1 <0>         0.0684
     34 H2         -2.6682    9.9998    5.3766 H         1 <0>         0.0730
     35 H3         -1.9249   11.4910    6.0477 H         1 <0>         0.0727
     36 H4         -1.8279    9.1992    8.6287 H         1 <0>         0.1299
     37 H5          0.1389    7.8992    9.3346 H         1 <0>         0.1354
     38 H6          1.9979    8.6830    5.5634 H         1 <0>         0.1267
     39 H7          0.0218    9.9722    4.8637 H         1 <0>         0.1270
     40 H8          3.2437    7.9852    8.1582 H         1 <0>         0.4522
     41 H9          3.9795    5.2572    5.7627 H         1 <0>         0.1460
     42 H10         3.5495    4.4546    3.4778 H         1 <0>         0.1527
     43 H11        -0.6517    4.3347    4.3314 H         1 <0>         0.1425
     44 H12        -0.1989    5.1275    6.6153 H         1 <0>         0.1481
     45 H13         3.7475    1.8122    1.8880 H         1 <0>         0.0846
     46 H14         2.9278    2.0696    3.4655 H         1 <0>         0.0714
     47 H15         3.8400    3.4130    2.6976 H         1 <0>         0.0764
     48 H16         2.0845    1.3986    0.4022 H         1 <0>         0.0957
     49 H17         0.5847    2.3856    0.3473 H         1 <0>         0.0994
     50 H18         4.1295    2.2017   -0.6171 H         1 <0>         0.1294
     51 H19         5.1440    3.6269   -2.3460 H         1 <0>         0.1370
     52 H20         1.5628    5.9830   -2.4774 H         1 <0>         0.1265
     53 H21         0.5685    4.5481   -0.7449 H         1 <0>         0.1363
     54 H22         2.3039    6.9955   -3.7217 H         1 <0>         0.4217
     55 H23         3.2054    8.4255   -5.4015 H         1 <0>         0.0779
     56 H24         4.1731    7.0316   -5.9906 H         1 <0>         0.0606
     57 H25         4.8358    8.1106   -4.7164 H         1 <0>         0.0603
@<TRIPOS>BOND
     1    1    2 1
     2    1   33 1
     3    1   34 1
     4    1   35 1
     5    2    7 ar
     6    2    3 ar
     7    3    4 ar
     8    3   36 1
     9    4    5 ar
    10    4   37 1
    11    5    6 ar
    12    5    8 1
    13    6    7 ar
    14    6   38 1
    15    7   39 1
    16    8    9 1
    17    8   40 1
    18    9   10 2
    19    9   11 2
    20    9   12 1
    21   12   17 ar
    22   12   13 ar
    23   13   14 ar
    24   13   41 1
    25   14   15 ar
    26   14   42 1
    27   15   16 ar
    28   15   18 1
    29   16   17 ar
    30   16   43 1
    31   17   44 1
    32   18   19 2
    33   18   20 am
    34   20   21 1
    35   20   22 1
    36   21   45 1
    37   21   46 1
    38   21   47 1
    39   22   23 1
    40   22   48 1
    41   22   49 1
    42   23   28 ar
    43   23   24 ar
    44   24   25 ar
    45   24   50 1
    46   25   26 ar
    47   25   51 1
    48   26   27 ar
    49   26   29 1
    50   27   28 ar
    51   27   52 1
    52   28   53 1
    53   29   30 2
    54   29   31 am
    55   31   32 1
    56   31   54 1
    57   32   55 1
    58   32   56 1
    59   32   57 1
@<TRIPOS>MOLECULE
ZINC38629637
   59    61     0     0     0
SMALL
USER_CHARGES

@<TRIPOS>ATOM
      1 C1          0.4509    2.2985   -0.3760 C.3       1 <0>        -0.1183
      2 C2          0.5201    0.7977   -0.2577 C.ar      1 <0>        -0.0790
      3 C3          1.5398    0.1017   -0.8796 C.ar      1 <0>        -0.1197
      4 C4          1.6033   -1.2749   -0.7712 C.ar      1 <0>        -0.1005
      5 C5          0.6474   -1.9555   -0.0405 C.ar      1 <0>        -0.1268
      6 C6         -0.3718   -1.2594    0.5822 C.ar      1 <0>        -0.1074
      7 C7         -0.4328    0.1176    0.4773 C.ar      1 <0>        -0.1177
      8 C8          0.7160   -3.4563    0.0769 C.3       1 <0>         0.1204
      9 H1          1.1184   -3.8749   -0.8456 H         1 <0>         0.1025
     10 C9         -0.6880   -4.0136    0.3201 C.3       1 <0>         0.1235
     11 N1         -0.6066   -5.4577    0.5529 N.pl3     1 <0>        -1.1057
     12 S1         -1.8697   -6.2533    1.2698 S.o2      1 <0>         2.6981
     13 O1         -1.5327   -7.6338    1.2698 O.2       1 <0>        -0.9544
     14 O2         -2.1724   -5.5431    2.4628 O.2       1 <0>        -0.9595
     15 C10        -3.2661   -6.0758    0.2100 C.ar      1 <0>        -0.6994
     16 C11        -4.3688   -5.3580    0.6360 C.ar      1 <0>         0.0032
     17 C12        -5.4648   -5.2170   -0.1922 C.ar      1 <0>        -0.1492
     18 C13        -5.4587   -5.7967   -1.4544 C.ar      1 <0>         0.2089
     19 C14        -4.3498   -6.5163   -1.8793 C.ar      1 <0>        -0.1713
     20 C15        -3.2548   -6.6496   -1.0479 C.ar      1 <0>         0.0425
     21 C16        -2.0486   -7.4257   -1.5103 C.3       1 <0>        -0.1408
     22 N2         -6.5677   -5.6561   -2.2959 N.am      1 <0>        -0.6799
     23 C17        -7.2891   -4.5178   -2.2755 C.2       1 <0>         0.5115
     24 O3         -6.9298   -3.5843   -1.5895 O.2       1 <0>        -0.5166
     25 C18        -8.5422   -4.4048   -3.1050 C.3       1 <0>        -0.1743
     26 N3          1.5887   -3.8201    1.2012 N.3       1 <0>        -0.5154
     27 C19         1.0594   -3.2981    2.4695 C.3       1 <0>         0.0051
     28 C20         1.9647   -3.7496    3.6186 C.3       1 <0>         0.0636
     29 O4          3.3016   -3.3081    3.3673 O.3       1 <0>        -0.3842
     30 C21         3.8487   -3.7984    2.1403 C.3       1 <0>         0.0636
     31 C22         2.9625   -3.3474    0.9762 C.3       1 <0>         0.0111
     32 H2          1.0168    2.7535    0.4370 H         1 <0>         0.0721
     33 H3          0.8750    2.6076   -1.3313 H         1 <0>         0.0671
     34 H4         -0.5891    2.6198   -0.3191 H         1 <0>         0.0676
     35 H5          2.2866    0.6334   -1.4505 H         1 <0>         0.1226
     36 H6          2.3995   -1.8188   -1.2576 H         1 <0>         0.1213
     37 H7         -1.1188   -1.7911    1.1528 H         1 <0>         0.1250
     38 H8         -1.2269    0.6618    0.9668 H         1 <0>         0.1237
     39 H9         -1.1251   -3.5289    1.1930 H         1 <0>         0.0837
     40 H10        -1.3116   -3.8209   -0.5529 H         1 <0>         0.0758
     41 H11         0.1871   -5.9479    0.2871 H         1 <0>         0.4242
     42 H12        -4.3729   -4.9075    1.6175 H         1 <0>         0.1475
     43 H13        -6.3259   -4.6569    0.1412 H         1 <0>         0.1431
     44 H14        -4.3420   -6.9683   -2.8601 H         1 <0>         0.1362
     45 H15        -2.1977   -8.4856   -1.3046 H         1 <0>         0.0978
     46 H16        -1.9113   -7.2793   -2.5817 H         1 <0>         0.0839
     47 H17        -1.1643   -7.0734   -0.9792 H         1 <0>         0.0683
     48 H18        -6.8174   -6.3778   -2.8938 H         1 <0>         0.4164
     49 H19        -9.2523   -5.1722   -2.7968 H         1 <0>         0.0951
     50 H20        -8.9860   -3.4199   -2.9605 H         1 <0>         0.0998
     51 H21        -8.2945   -4.5408   -4.1578 H         1 <0>         0.0938
     52 H22         1.0340   -2.2090    2.4325 H         1 <0>         0.0524
     53 H23         0.0513   -3.6811    2.6283 H         1 <0>         0.0941
     54 H24         1.6085   -3.3177    4.5538 H         1 <0>         0.0988
     55 H25         1.9478   -4.8372    3.6894 H         1 <0>         0.0601
     56 H26         4.8552   -3.4019    2.0064 H         1 <0>         0.0969
     57 H27         3.8867   -4.8874    2.1682 H         1 <0>         0.0596
     58 H28         3.3437   -3.7664    0.0450 H         1 <0>         0.0855
     59 H29         2.9675   -2.2591    0.9153 H         1 <0>         0.0538
@<TRIPOS>BOND
     1    1    2 1
     2    1   32 1
     3    1   33 1
     4    1   34 1
     5    2    7 ar
     6    2    3 ar
     7    3    4 ar
     8    3   35 1
     9    4    5 ar
    10    4   36 1
    11    5    6 ar
    12    5    8 1
    13    6    7 ar
    14    6   37 1
    15    7   38 1
    16    8    9 1
    17    8   10 1
    18    8   26 1
    19   10   11 1
    20   10   39 1
    21   10   40 1
    22   11   12 1
    23   11   41 1
    24   12   13 2
    25   12   14 2
    26   12   15 1
    27   15   20 ar
    28   15   16 ar
    29   16   17 ar
    30   16   42 1
    31   17   18 ar
    32   17   43 1
    33   18   19 ar
    34   18   22 1
    35   19   20 ar
    36   19   44 1
    37   20   21 1
    38   21   45 1
    39   21   46 1
    40   21   47 1
    41   22   23 am
    42   22   48 1
    43   23   24 2
    44   23   25 1
    45   25   49 1
    46   25   50 1
    47   25   51 1
    48   26   31 1
    49   26   27 1
    50   27   28 1
    51   27   52 1
    52   27   53 1
    53   28   29 1
    54   28   54 1
    55   28   55 1
    56   29   30 1
    57   30   31 1
    58   30   56 1
    59   30   57 1
    60   31   58 1
    61   31   59 1
@<TRIPOS>MOLECULE
ZINC15291324
   47    49     0     0     0
SMALL
USER_CHARGES

@<TRIPOS>ATOM
      1 C1          0.0227    1.2379   -1.0417 C.ar      1 <0>        -0.1265
      2 C2          1.1380    2.0177   -0.7851 C.ar      1 <0>        -0.0617
      3 C3          2.2914    1.4450   -0.2806 C.ar      1 <0>        -0.1559
      4 C4          2.3393    0.0871   -0.0289 C.ar      1 <0>         0.1390
      5 C5          1.2142   -0.7081   -0.2863 C.ar      1 <0>        -0.1310
      6 C6          0.0522   -0.1178   -0.7964 C.ar      1 <0>        -0.0642
      7 C7          1.2544   -2.1528   -0.0223 C.2       1 <0>         0.0794
      8 C8          0.0988   -2.8546    0.0874 C.2       1 <0>        -0.2125
      9 C9         -0.1101   -4.3122    0.2077 C.2       1 <0>         0.5594
     10 O1          0.8233   -5.0929    0.2213 O.2       1 <0>        -0.4613
     11 N1         -1.3629   -4.7252    0.3003 N.am      1 <0>        -0.5748
     12 C10        -2.3943   -3.8565    0.2853 C.2       1 <0>         0.5365
     13 O2         -3.5844   -4.0957    0.3616 O.2       1 <0>        -0.4102
     14 S1         -1.5898   -2.2696    0.1339 S.3       1 <0>        -0.0339
     15 C11        -1.6367   -6.1593    0.4215 C.3       1 <0>         0.0813
     16 C12        -1.6614   -6.5505    1.9004 C.3       1 <0>         0.1073
     17 N2         -1.9352   -7.9846    2.0216 N.am      1 <0>        -0.7219
     18 C13        -2.0040   -8.5569    3.2399 C.2       1 <0>         0.5128
     19 O3         -1.8393   -7.8847    4.2359 O.2       1 <0>        -0.5275
     20 C14        -2.2856  -10.0321    3.3646 C.3       1 <0>         0.1028
     21 N3         -2.3093  -10.4068    4.7807 N.pl3     1 <0>        -0.7274
     22 C15        -2.5526  -11.7273    5.1473 C.ar      1 <0>         0.2481
     23 C16        -2.7675  -12.6916    4.1670 C.ar      1 <0>        -0.2048
     24 C17        -3.0084  -13.9984    4.5260 C.ar      1 <0>        -0.0169
     25 C18        -3.0370  -14.3566    5.8771 C.ar      1 <0>        -0.0948
     26 C19        -2.8207  -13.3854    6.8592 C.ar      1 <0>        -0.0171
     27 C20        -2.5747  -12.0815    6.4930 C.ar      1 <0>        -0.1941
     28 C21        -3.2878  -15.7151    6.2542 C.1       1 <0>         0.2591
     29 N4         -3.4867  -16.7928    6.5534 N.1       1 <0>        -0.4314
     30 F1          3.4665   -0.4719    0.4630 F         1 <0>        -0.1262
     31 H1         -0.8750    1.6947   -1.4314 H         1 <0>         0.1408
     32 H2          1.1071    3.0795   -0.9804 H         1 <0>         0.1421
     33 H3          3.1567    2.0604   -0.0833 H         1 <0>         0.1458
     34 H4         -0.8193   -0.7233   -0.9972 H         1 <0>         0.1456
     35 H5          2.2040   -2.6560    0.0845 H         1 <0>         0.1670
     36 H6         -2.6030   -6.3841   -0.0300 H         1 <0>         0.1083
     37 H7         -0.8565   -6.7227   -0.0904 H         1 <0>         0.1118
     38 H8         -0.6951   -6.3257    2.3519 H         1 <0>         0.0797
     39 H9         -2.4416   -5.9872    2.4123 H         1 <0>         0.0778
     40 H10        -2.0669   -8.5223    1.2251 H         1 <0>         0.4071
     41 H11        -3.2519  -10.2570    2.9131 H         1 <0>         0.0989
     42 H12        -1.5055  -10.5955    2.8527 H         1 <0>         0.0989
     43 H13        -2.1554   -9.7345    5.4629 H         1 <0>         0.4154
     44 H14        -2.7457  -12.4141    3.1235 H         1 <0>         0.1309
     45 H15        -3.1755  -14.7462    3.7648 H         1 <0>         0.1322
     46 H16        -2.8420  -13.6587    7.9038 H         1 <0>         0.1330
     47 H17        -2.4028  -11.3316    7.2510 H         1 <0>         0.1328
@<TRIPOS>BOND
     1    1    6 ar
     2    1    2 ar
     3    1   31 1
     4    2    3 ar
     5    2   32 1
     6    3    4 ar
     7    3   33 1
     8    4    5 ar
     9    4   30 1
    10    5    6 ar
    11    5    7 1
    12    6   34 1
    13    7    8 2
    14    7   35 1
    15    8   14 1
    16    8    9 1
    17    9   10 2
    18    9   11 am
    19   11   12 am
    20   11   15 1
    21   12   13 2
    22   12   14 1
    23   15   16 1
    24   15   36 1
    25   15   37 1
    26   16   17 1
    27   16   38 1
    28   16   39 1
    29   17   18 am
    30   17   40 1
    31   18   19 2
    32   18   20 1
    33   20   21 1
    34   20   41 1
    35   20   42 1
    36   21   22 1
    37   21   43 1
    38   22   27 ar
    39   22   23 ar
    40   23   24 ar
    41   23   44 1
    42   24   25 ar
    43   24   45 1
    44   25   26 ar
    45   25   28 1
    46   26   27 ar
    47   26   46 1
    48   27   47 1
    49   28   29 3
@<TRIPOS>MOLECULE
ZINC00890851
   57    61     0     0     0
SMALL
USER_CHARGES
1-cyclopentyl-1-[(6-oxo-5H-[1,3]dioxolo[4,5-g]quinolin-7-yl)methyl]-3-[[(2S)-tetrahydrofuran-2-yl]methyl]thiourea
@<TRIPOS>ATOM
      1 C1          1.2289    3.2993    0.0528 C.2       1 <0>         0.0384
      2 C2         -0.0562    3.9968    0.0691 C.ar      1 <0>        -0.1257
      3 C3         -0.1184    5.3953    0.1135 C.ar      1 <0>        -0.0302
      4 C4         -1.3436    6.0242    0.1288 C.ar      1 <0>         0.0030
      5 C5         -2.5241    5.2708    0.0999 C.ar      1 <0>         0.0977
      6 C6         -2.4718    3.8897    0.0555 C.ar      1 <0>        -0.1556
      7 C7         -1.2439    3.2404    0.0399 C.ar      1 <0>         0.2020
      8 N1         -1.1728    1.8628   -0.0090 N.am      1 <0>        -0.6256
      9 H1         -1.9911    1.3425   -0.0341 H         1 <0>         0.4169
     10 C8          0.0141    1.2314   -0.0171 C.2       1 <0>         0.5484
     11 O1          0.0387    0.0130   -0.0543 O.2       1 <0>        -0.5403
     12 C9          1.2307    1.9425    0.0107 C.2       1 <0>        -0.2272
     13 C10         2.5384    1.1937   -0.0071 C.3       1 <0>         0.1763
     14 N2          2.8962    0.8035    1.3589 N.pl3     1 <0>        -0.5551
     15 C11         2.4475   -0.4843    1.8941 C.3       1 <0>         0.1131
     16 C12         1.7660   -0.2791    3.2628 C.3       1 <0>        -0.1555
     17 C13         2.2008   -1.5141    4.0918 C.3       1 <0>        -0.1263
     18 C14         3.6690   -1.7260    3.6462 C.3       1 <0>        -0.1407
     19 C15         3.6568   -1.4041    2.1375 C.3       1 <0>        -0.1491
     20 C16         3.6382    1.6292    2.1231 C.2       1 <0>         0.5659
     21 S1          4.0683    3.1801    1.5395 S.2       1 <0>        -0.6583
     22 N3          4.0417    1.2339    3.3468 N.pl3     1 <0>        -0.6866
     23 C17         4.7584    2.1678    4.2189 C.3       1 <0>         0.1252
     24 C18         5.0991    1.4735    5.5391 C.3       1 <0>         0.0573
     25 H2          4.2034    1.0339    5.9780 H         1 <0>         0.0726
     26 C19         5.7440    2.4751    6.5226 C.3       1 <0>        -0.1451
     27 C20         6.8191    1.6420    7.2557 C.3       1 <0>        -0.1552
     28 C21         6.6966    0.2357    6.6284 C.3       1 <0>         0.0436
     29 O2          6.1076    0.4612    5.3291 O.3       1 <0>        -0.3688
     30 O3         -3.5850    6.1284    0.1235 O.3       1 <0>        -0.3021
     31 C22        -3.0547    7.3860    0.5813 C.3       1 <0>         0.2119
     32 O4         -1.6754    7.3486    0.1706 O.3       1 <0>        -0.3020
     33 H3          2.1567    3.8517    0.0742 H         1 <0>         0.1741
     34 H4          0.7906    5.9781    0.1353 H         1 <0>         0.1537
     35 H5         -3.3863    3.3155    0.0326 H         1 <0>         0.1472
     36 H6          2.4379    0.3016   -0.6253 H         1 <0>         0.1008
     37 H7          3.3184    1.8346   -0.4180 H         1 <0>         0.1227
     38 H8          1.7536   -0.9561    1.1985 H         1 <0>         0.1260
     39 H9          2.1203    0.6389    3.7316 H         1 <0>         0.0774
     40 H10         0.6821   -0.2570    3.1497 H         1 <0>         0.0809
     41 H11         1.5915   -2.3819    3.8395 H         1 <0>         0.0803
     42 H12         2.1478   -1.3041    5.1600 H         1 <0>         0.0742
     43 H13         3.9731   -2.7593    3.8134 H         1 <0>         0.0832
     44 H14         4.3313   -1.0419    4.1769 H         1 <0>         0.0750
     45 H15         3.5493   -2.3227    1.5607 H         1 <0>         0.0865
     46 H16         4.5775   -0.8924    1.8574 H         1 <0>         0.0752
     47 H17         3.8576    0.3311    3.6501 H         1 <0>         0.4104
     48 H18         5.6778    2.4892    3.7296 H         1 <0>         0.1000
     49 H19         4.1294    3.0358    4.4167 H         1 <0>         0.0991
     50 H20         6.2047    3.3005    5.9799 H         1 <0>         0.0857
     51 H21         5.0024    2.8480    7.2290 H         1 <0>         0.0827
     52 H22         7.8114    2.0555    7.0754 H         1 <0>         0.0795
     53 H23         6.6103    1.6051    8.3249 H         1 <0>         0.0795
     54 H24         7.6810   -0.2206    6.5247 H         1 <0>         0.0952
     55 H25         6.0470   -0.3952    7.2351 H         1 <0>         0.0609
     56 H26        -3.1290    7.4603    1.6662 H         1 <0>         0.0896
     57 H27        -3.5732    8.2183    0.1054 H         1 <0>         0.1374
@<TRIPOS>BOND
     1    1   12 2
     2    1    2 1
     3    1   33 1
     4    2    7 ar
     5    2    3 ar
     6    3    4 ar
     7    3   34 1
     8    4   32 1
     9    4    5 ar
    10    5    6 ar
    11    5   30 1
    12    6    7 ar
    13    6   35 1
    14    7    8 1
    15    8    9 1
    16    8   10 am
    17   10   11 2
    18   10   12 1
    19   12   13 1
    20   13   14 1
    21   13   36 1
    22   13   37 1
    23   14   15 1
    24   14   20 1
    25   15   19 1
    26   15   16 1
    27   15   38 1
    28   16   17 1
    29   16   39 1
    30   16   40 1
    31   17   18 1
    32   17   41 1
    33   17   42 1
    34   18   19 1
    35   18   43 1
    36   18   44 1
    37   19   45 1
    38   19   46 1
    39   20   21 2
    40   20   22 1
    41   22   23 1
    42   22   47 1
    43   23   24 1
    44   23   48 1
    45   23   49 1
    46   24   25 1
    47   24   29 1
    48   24   26 1
    49   26   27 1
    50   26   50 1
    51   26   51 1
    52   27   28 1
    53   27   52 1
    54   27   53 1
    55   28   29 1
    56   28   54 1
    57   28   55 1
    58   30   31 1
    59   31   32 1
    60   31   56 1
    61   31   57 1
@<TRIPOS>MOLECULE
ZINC18008156
   47    48     0     0     0
SMALL
USER_CHARGES
3-[(3,4-difluorophenyl)sulfonylamino]-N-[2-[(3-fluorophenyl)amino]-2-oxo-ethyl]-N-methyl-propanamide
@<TRIPOS>ATOM
      1 C1         -2.5437    4.3654   -5.5414 C.3       1 <0>         0.0767
      2 N1         -2.2993    5.3552   -4.4893 N.am      1 <0>        -0.6017
      3 C2         -2.5276    6.7778   -4.7546 C.3       1 <0>         0.0990
      4 C3         -1.2610    7.3996   -5.2841 C.2       1 <0>         0.4962
      5 O1         -0.2657    6.7212   -5.4258 O.2       1 <0>        -0.5043
      6 N2         -1.2344    8.7095   -5.6000 N.am      1 <0>        -0.6725
      7 C4         -0.0346    9.3086   -5.9994 C.ar      1 <0>         0.1730
      8 C5          0.2361   10.6251   -5.6486 C.ar      1 <0>        -0.1549
      9 C6          1.4230   11.2132   -6.0395 C.ar      1 <0>        -0.0701
     10 C7          2.3382   10.4967   -6.7884 C.ar      1 <0>        -0.1683
     11 C8          2.0699    9.1856   -7.1447 C.ar      1 <0>         0.1184
     12 C9          0.8846    8.5902   -6.7516 C.ar      1 <0>        -0.1594
     13 F1          2.9658    8.4880   -7.8768 F         1 <0>        -0.1352
     14 C10        -1.8645    4.9570   -3.2774 C.2       1 <0>         0.5263
     15 O2         -1.6622    5.7764   -2.4064 O.2       1 <0>        -0.5310
     16 C11        -1.6297    3.4937   -3.0044 C.3       1 <0>        -0.1467
     17 C12        -1.1426    3.3150   -1.5651 C.3       1 <0>         0.1268
     18 N3         -0.9143    1.8925   -1.2998 N.pl3     1 <0>        -1.1162
     19 S1         -0.0425    1.4275    0.0292 S.o2      1 <0>         2.7012
     20 O3         -0.0204    0.0067    0.0236 O.2       1 <0>        -0.9477
     21 O4          1.1450    2.2079    0.0293 O.2       1 <0>        -0.9420
     22 C13        -0.9632    1.9112    1.4515 C.ar      1 <0>        -0.6687
     23 C14        -0.7595    3.1572    2.0150 C.ar      1 <0>         0.0009
     24 C15        -1.4845    3.5411    3.1274 C.ar      1 <0>        -0.1442
     25 C16        -2.4075    2.6734    3.6851 C.ar      1 <0>         0.1273
     26 C17        -2.6077    1.4217    3.1234 C.ar      1 <0>         0.0489
     27 C18        -1.8841    1.0425    2.0060 C.ar      1 <0>        -0.0234
     28 F2         -3.5084    0.5733    3.6657 F         1 <0>        -0.1201
     29 F3         -3.1129    3.0460    4.7754 F         1 <0>        -0.1157
     30 H1         -3.5770    4.0231   -5.4852 H         1 <0>         0.0649
     31 H2         -2.3639    4.8192   -6.5160 H         1 <0>         0.0746
     32 H3         -1.8722    3.5177   -5.4058 H         1 <0>         0.0791
     33 H4         -3.3220    6.8868   -5.4929 H         1 <0>         0.1158
     34 H5         -2.8190    7.2775   -3.8308 H         1 <0>         0.1217
     35 H6         -2.0469    9.2370   -5.5506 H         1 <0>         0.4155
     36 H7         -0.4797   11.1875   -5.0676 H         1 <0>         0.1341
     37 H8          1.6347   12.2357   -5.7634 H         1 <0>         0.1391
     38 H9          3.2637   10.9604   -7.0962 H         1 <0>         0.1378
     39 H10         0.6749    7.5677   -7.0292 H         1 <0>         0.1498
     40 H11        -0.8759    3.1120   -3.6931 H         1 <0>         0.1098
     41 H12        -2.5607    2.9441   -3.1438 H         1 <0>         0.1064
     42 H13        -1.8964    3.6967   -0.8764 H         1 <0>         0.0773
     43 H14        -0.2116    3.8646   -1.4257 H         1 <0>         0.0936
     44 H15        -1.2739    1.2229   -1.9026 H         1 <0>         0.4217
     45 H16        -0.0363    3.8329    1.5829 H         1 <0>         0.1611
     46 H17        -1.3277    4.5163    3.5640 H         1 <0>         0.1600
     47 H18        -2.0389    0.0676    1.5678 H         1 <0>         0.1650
@<TRIPOS>BOND
     1    1    2 1
     2    1   30 1
     3    1   31 1
     4    1   32 1
     5    2    3 1
     6    2   14 am
     7    3    4 1
     8    3   33 1
     9    3   34 1
    10    4    5 2
    11    4    6 am
    12    6    7 1
    13    6   35 1
    14    7   12 ar
    15    7    8 ar
    16    8    9 ar
    17    8   36 1
    18    9   10 ar
    19    9   37 1
    20   10   11 ar
    21   10   38 1
    22   11   12 ar
    23   11   13 1
    24   12   39 1
    25   14   15 2
    26   14   16 1
    27   16   17 1
    28   16   40 1
    29   16   41 1
    30   17   18 1
    31   17   42 1
    32   17   43 1
    33   18   19 1
    34   18   44 1
    35   19   20 2
    36   19   21 2
    37   19   22 1
    38   22   27 ar
    39   22   23 ar
    40   23   24 ar
    41   23   45 1
    42   24   25 ar
    43   24   46 1
    44   25   26 ar
    45   25   29 1
    46   26   27 ar
    47   26   28 1
    48   27   47 1
@<TRIPOS>MOLECULE
ZINC26640177
   57    59     0     0     0
SMALL
USER_CHARGES
(3R)-3-acetamido-N-[4-methyl-3-(1-piperidylsulfonyl)phenyl]-3-(2-thienyl)propanamide
@<TRIPOS>ATOM
      1 C1          2.3107    9.8622    0.6899 C.3       1 <0>        -0.1875
      2 C2          2.3625    8.3767    0.4413 C.ar      1 <0>         0.0093
      3 C3          1.2094    7.6197    0.5413 C.ar      1 <0>        -0.1215
      4 C4          1.2527    6.2591    0.3089 C.ar      1 <0>        -0.0627
      5 C5          2.4580    5.6492   -0.0138 C.ar      1 <0>         0.1284
      6 C6          3.6139    6.4121   -0.1135 C.ar      1 <0>        -0.0471
      7 C7          3.5629    7.7736    0.1142 C.ar      1 <0>        -0.6608
      8 S1          5.0291    8.7426   -0.0120 S.o2      1 <0>         2.6923
      9 O1          5.0375    9.6144    1.1101 O.2       1 <0>        -0.9506
     10 O2          6.0915    7.8383   -0.2822 O.2       1 <0>        -0.9565
     11 N1          4.8694    9.6998   -1.3539 N.pl3     1 <0>        -0.9952
     12 C8          5.2430    9.1950   -2.6822 C.3       1 <0>         0.1188
     13 C9          4.0488    9.3834   -3.6301 C.3       1 <0>        -0.1362
     14 C10         3.6191   10.8522   -3.6142 C.3       1 <0>        -0.1181
     15 C11         3.1782   11.2412   -2.2013 C.3       1 <0>        -0.1432
     16 C12         4.3573   11.0720   -1.2380 C.3       1 <0>         0.1042
     17 N2          2.5064    4.2698   -0.2437 N.am      1 <0>        -0.6873
     18 C13         1.6843    3.4445    0.4340 C.2       1 <0>         0.5143
     19 O3          0.9700    3.8848    1.3098 O.2       1 <0>        -0.5077
     20 C14         1.6525    1.9745    0.1037 C.3       1 <0>        -0.1451
     21 C15         0.6432    1.2693    1.0121 C.3       1 <0>         0.2507
     22 H1          0.8501    1.4805    2.0716 H         1 <0>         0.1182
     23 C16         0.6996   -0.2166    0.7673 C.2       1 <0>        -0.1577
     24 C17         1.3320   -1.1766    1.4856 C.2       1 <0>        -0.1422
     25 C18         1.2426   -2.4922    1.0709 C.2       1 <0>        -0.1554
     26 C19         0.5341   -2.7821   -0.0477 C.2       1 <0>        -0.1715
     27 S2         -0.0426   -1.1683   -0.5482 S.3       1 <0>         0.0405
     28 N3         -0.7050    1.7617    0.7188 N.am      1 <0>        -0.7320
     29 C20        -1.6650    1.7004    1.6629 C.2       1 <0>         0.5219
     30 O4         -1.4126    1.2375    2.7551 O.2       1 <0>        -0.5411
     31 C21        -3.0519    2.2069    1.3613 C.3       1 <0>        -0.1756
     32 H2          1.2797   10.1572    0.9350 H         1 <0>         0.0827
     33 H3          2.6402   10.3968   -0.2132 H         1 <0>         0.0954
     34 H4          2.9744   10.1168    1.5294 H         1 <0>         0.1088
     35 H5          0.2733    8.0938    0.7967 H         1 <0>         0.1351
     36 H6          0.3510    5.6692    0.3828 H         1 <0>         0.1413
     37 H7          4.5518    5.9415   -0.3690 H         1 <0>         0.1450
     38 H8          6.1115    9.7566   -3.0569 H         1 <0>         0.0784
     39 H9          5.4998    8.1278   -2.6100 H         1 <0>         0.0890
     40 H10         4.3418    9.0959   -4.6506 H         1 <0>         0.0769
     41 H11         3.2128    8.7510   -3.2968 H         1 <0>         0.0671
     42 H12         4.4649   11.4850   -3.9210 H         1 <0>         0.0671
     43 H13         2.7811   10.9967   -4.3120 H         1 <0>         0.0664
     44 H14         2.8465   12.2900   -2.1964 H         1 <0>         0.0799
     45 H15         2.3481   10.5926   -1.8846 H         1 <0>         0.0729
     46 H16         4.0242   11.2531   -0.2054 H         1 <0>         0.1026
     47 H17         5.1550   11.7841   -1.4961 H         1 <0>         0.0796
     48 H18         3.2154    3.8591   -0.9776 H         1 <0>         0.4384
     49 H19         1.3558    1.8412   -0.9471 H         1 <0>         0.1101
     50 H20         2.6516    1.5418    0.2603 H         1 <0>         0.1187
     51 H21         1.8948   -0.9178    2.3702 H         1 <0>         0.1335
     52 H22         1.7337   -3.2768    1.6273 H         1 <0>         0.1351
     53 H23         0.3631   -3.7405   -0.5152 H         1 <0>         0.1859
     54 H24        -0.9338    2.1814   -0.2719 H         1 <0>         0.4174
     55 H25        -3.6912    2.0744    2.2466 H         1 <0>         0.0924
     56 H26        -3.4731    1.6416    0.5169 H         1 <0>         0.0878
     57 H27        -3.0037    3.2744    1.1003 H         1 <0>         0.0882
@<TRIPOS>BOND
     1    1    2 1
     2    1   32 1
     3    1   33 1
     4    1   34 1
     5    2    7 ar
     6    2    3 ar
     7    3    4 ar
     8    3   35 1
     9    4    5 ar
    10    4   36 1
    11    5    6 ar
    12    5   17 1
    13    6    7 ar
    14    6   37 1
    15    7    8 1
    16    8    9 2
    17    8   10 2
    18    8   11 1
    19   11   16 1
    20   11   12 1
    21   12   13 1
    22   12   38 1
    23   12   39 1
    24   13   14 1
    25   13   40 1
    26   13   41 1
    27   14   15 1
    28   14   42 1
    29   14   43 1
    30   15   16 1
    31   15   44 1
    32   15   45 1
    33   16   46 1
    34   16   47 1
    35   17   18 am
    36   17   48 1
    37   18   19 2
    38   18   20 1
    39   20   21 1
    40   20   49 1
    41   20   50 1
    42   21   22 1
    43   21   23 1
    44   21   28 1
    45   23   27 1
    46   23   24 2
    47   24   25 1
    48   24   51 1
    49   25   26 2
    50   25   52 1
    51   26   27 1
    52   26   53 1
    53   28   29 am
    54   28   54 1
    55   29   30 2
    56   29   31 1
    57   31   55 1
    58   31   56 1
    59   31   57 1
@<TRIPOS>MOLECULE
ZINC39198584
   59    62     0     0     0
SMALL
USER_CHARGES

@<TRIPOS>ATOM
      1 C1         -0.1193    1.2450    0.4913 C.3       1 <0>        -0.1723
      2 C2         -0.1901   -0.2766    0.3481 C.3       1 <0>         0.1316
      3 H1          0.4247   -0.5912   -0.4952 H         1 <0>         0.0907
      4 C3          0.3267   -0.9341    1.6293 C.3       1 <0>         0.2201
      5 C4          0.2570   -2.4329    1.4882 C.ar      1 <0>        -0.1114
      6 C5          0.3965   -3.0171    0.2432 C.ar      1 <0>        -0.1129
      7 C6          0.3326   -4.3919    0.1137 C.ar      1 <0>        -0.1180
      8 C7          0.1296   -5.1825    1.2294 C.ar      1 <0>        -0.1111
      9 C8         -0.0091   -4.5983    2.4745 C.ar      1 <0>        -0.1174
     10 C9          0.0592   -3.2237    2.6046 C.ar      1 <0>        -0.0993
     11 C10         1.7555   -0.5178    1.8664 C.ar      1 <0>        -0.0685
     12 C11         2.5751   -0.2179    0.7944 C.ar      1 <0>        -0.1137
     13 C12         3.8857    0.1640    1.0119 C.ar      1 <0>        -0.1184
     14 C13         4.3766    0.2464    2.3015 C.ar      1 <0>        -0.1146
     15 C14         3.5568   -0.0526    3.3736 C.ar      1 <0>        -0.1207
     16 C15         2.2450   -0.4303    3.1563 C.ar      1 <0>        -0.0867
     17 O1         -0.4793   -0.5217    2.7349 O.3       1 <0>        -0.5359
     18 N1         -1.5791   -0.6814    0.1175 N.pl3     1 <0>        -1.1102
     19 S1         -2.1304   -0.9062   -1.4277 S.o2      1 <0>         2.7031
     20 O2         -3.4871   -1.3150   -1.3194 O.2       1 <0>        -0.9557
     21 O3         -1.7370    0.2397   -2.1701 O.2       1 <0>        -0.9520
     22 C16        -1.2454   -2.2720   -2.1030 C.ar      1 <0>        -0.7953
     23 C17        -0.0479   -2.0680   -2.7763 C.ar      1 <0>         0.0554
     24 C18         0.6152   -3.1670   -3.2912 C.ar      1 <0>        -0.2547
     25 C19         0.0634   -4.4325   -3.1183 C.ar      1 <0>         0.4519
     26 N2         -1.0808   -4.5857   -2.4700 N.ar      1 <0>        -0.5457
     27 C20        -1.7323   -3.5559   -1.9633 C.ar      1 <0>         0.2692
     28 N3          0.7191   -5.5458   -3.6310 N.pl3     1 <0>        -0.6004
     29 C21         0.2863   -6.9078   -3.2805 C.3       1 <0>         0.0830
     30 C22         0.1184   -7.7101   -4.5760 C.3       1 <0>         0.0459
     31 O4          1.3133   -7.6040   -5.3536 O.3       1 <0>        -0.3770
     32 C23         1.6212   -6.2730   -5.7748 C.3       1 <0>         0.0467
     33 C24         1.8625   -5.3971   -4.5452 C.3       1 <0>         0.0821
     34 H2          0.9141    1.5461    0.6628 H         1 <0>         0.0740
     35 H3         -0.4876    1.7134   -0.4214 H         1 <0>         0.0747
     36 H4         -0.7342    1.5595    1.3346 H         1 <0>         0.0728
     37 H5          0.5552   -2.3995   -0.6285 H         1 <0>         0.1186
     38 H6          0.4409   -4.8483   -0.8591 H         1 <0>         0.1201
     39 H7          0.0789   -6.2565    1.1282 H         1 <0>         0.1196
     40 H8         -0.1680   -5.2159    3.3461 H         1 <0>         0.1231
     41 H9         -0.0454   -2.7675    3.5779 H         1 <0>         0.1286
     42 H10         2.1915   -0.2823   -0.2132 H         1 <0>         0.1202
     43 H11         4.5262    0.3976    0.1743 H         1 <0>         0.1251
     44 H12         5.4008    0.5441    2.4714 H         1 <0>         0.1231
     45 H13         3.9405    0.0115    4.3811 H         1 <0>         0.1239
     46 H14         1.6034   -0.6603    3.9940 H         1 <0>         0.1288
     47 H15        -1.4134   -0.7572    2.6501 H         1 <0>         0.3786
     48 H16        -2.1759   -0.8176    0.8700 H         1 <0>         0.4161
     49 H17         0.3561   -1.0736   -2.8954 H         1 <0>         0.1497
     50 H18         1.5486   -3.0445   -3.8207 H         1 <0>         0.1427
     51 H19        -2.6606   -3.7195   -1.4363 H         1 <0>         0.1703
     52 H20         1.0390   -7.3815   -2.6504 H         1 <0>         0.0759
     53 H21        -0.6644   -6.8656   -2.7490 H         1 <0>         0.1103
     54 H22        -0.0671   -8.7568   -4.3345 H         1 <0>         0.1092
     55 H23        -0.7224   -7.3123   -5.1442 H         1 <0>         0.0577
     56 H24         2.5169   -6.2856   -6.3958 H         1 <0>         0.1112
     57 H25         0.7859   -5.8699   -6.3474 H         1 <0>         0.0574
     58 H26         1.9552   -4.3549   -4.8508 H         1 <0>         0.0973
     59 H27         2.7767   -5.7160   -4.0445 H         1 <0>         0.0830
@<TRIPOS>BOND
     1    1    2 1
     2    1   34 1
     3    1   35 1
     4    1   36 1
     5    2    3 1
     6    2    4 1
     7    2   18 1
     8    4    5 1
     9    4   11 1
    10    4   17 1
    11    5   10 ar
    12    5    6 ar
    13    6    7 ar
    14    6   37 1
    15    7    8 ar
    16    7   38 1
    17    8    9 ar
    18    8   39 1
    19    9   10 ar
    20    9   40 1
    21   10   41 1
    22   11   16 ar
    23   11   12 ar
    24   12   13 ar
    25   12   42 1
    26   13   14 ar
    27   13   43 1
    28   14   15 ar
    29   14   44 1
    30   15   16 ar
    31   15   45 1
    32   16   46 1
    33   17   47 1
    34   18   19 1
    35   18   48 1
    36   19   20 2
    37   19   21 2
    38   19   22 1
    39   22   27 ar
    40   22   23 ar
    41   23   24 ar
    42   23   49 1
    43   24   25 ar
    44   24   50 1
    45   25   26 ar
    46   25   28 1
    47   26   27 ar
    48   27   51 1
    49   28   33 1
    50   28   29 1
    51   29   30 1
    52   29   52 1
    53   29   53 1
    54   30   31 1
    55   30   54 1
    56   30   55 1
    57   31   32 1
    58   32   33 1
    59   32   56 1
    60   32   57 1
    61   33   58 1
    62   33   59 1
@<TRIPOS>MOLECULE
ZINC59244790
   49    51     0     0     0
SMALL
USER_CHARGES

@<TRIPOS>ATOM
      1 C1         -1.6559   -0.4496   -5.8610 C.ar      1 <0>        -0.0922
      2 C2         -0.8847    0.2890   -6.7385 C.ar      1 <0>        -0.1066
      3 C3         -0.8355    1.6670   -6.6245 C.ar      1 <0>        -0.0242
      4 C4         -1.5584    2.3047   -5.6321 C.ar      1 <0>        -0.1066
      5 C5         -2.3293    1.5650   -4.7552 C.ar      1 <0>        -0.0876
      6 C6         -2.3780    0.1882   -4.8696 C.ar      1 <0>        -0.0936
      7 C7         -3.2190   -0.6178   -3.9134 C.3       1 <0>        -0.5820
      8 S1         -2.2212   -1.0771   -2.4699 S.o2      1 <0>         2.5996
      9 O1         -1.2775   -2.0781   -2.8256 O.2       1 <0>        -0.9385
     10 O2         -1.8112    0.0881   -1.7675 O.2       1 <0>        -0.9337
     11 N1         -3.2781   -1.8374   -1.4464 N.pl3     1 <0>        -1.0711
     12 C8         -4.3541   -1.1316   -0.9033 C.ar      1 <0>         0.1744
     13 C9         -4.1413   -0.2175    0.1207 C.ar      1 <0>        -0.1230
     14 C10        -5.2074    0.4790    0.6552 C.ar      1 <0>        -0.0063
     15 C11        -6.4857    0.2669    0.1722 C.ar      1 <0>        -0.6733
     16 C12        -6.7011   -0.6424   -0.8472 C.ar      1 <0>        -0.0148
     17 C13        -5.6387   -1.3380   -1.3900 C.ar      1 <0>        -0.1406
     18 S2         -7.8432    1.1568    0.8577 S.o2      1 <0>         2.6948
     19 O3         -9.0063    0.3799    0.6069 O.2       1 <0>        -0.9498
     20 O4         -7.4542    1.5447    2.1683 O.2       1 <0>        -0.9516
     21 N2         -8.0074    2.5516   -0.0196 N.pl3     1 <0>        -1.1094
     22 C14        -8.3806    2.4872   -1.4348 C.3       1 <0>         0.1163
     23 C15        -8.8259    3.8722   -1.9084 C.3       1 <0>         0.0732
     24 H1         -8.0204    4.5942   -1.7746 H         1 <0>         0.0815
     25 C16        -9.2587    3.8187   -3.3953 C.3       1 <0>        -0.1518
     26 C17       -10.2240    5.0333   -3.4652 C.3       1 <0>        -0.1560
     27 C18       -10.8708    5.0189   -2.0635 C.3       1 <0>         0.0480
     28 O5         -9.9966    4.2923   -1.1898 O.3       1 <0>        -0.3731
     29 Cl1         0.1334    2.5954   -7.7259 Cl        1 <0>        -0.0585
     30 H2         -1.6980   -1.5249   -5.9527 H         1 <0>         0.1419
     31 H3         -0.3203   -0.2093   -7.5127 H         1 <0>         0.1429
     32 H4         -1.5201    3.3803   -5.5424 H         1 <0>         0.1425
     33 H5         -2.8933    2.0626   -3.9802 H         1 <0>         0.1405
     34 H6         -4.0731   -0.0226   -3.5903 H         1 <0>         0.1447
     35 H7         -3.5729   -1.5199   -4.4125 H         1 <0>         0.1487
     36 H8         -3.1499   -2.7728   -1.2242 H         1 <0>         0.4315
     37 H9         -3.1433   -0.0519    0.4988 H         1 <0>         0.1490
     38 H10        -5.0426    1.1898    1.4514 H         1 <0>         0.1508
     39 H11        -7.7007   -0.8056   -1.2220 H         1 <0>         0.1492
     40 H12        -5.8070   -2.0447   -2.1892 H         1 <0>         0.1429
     41 H13        -7.8565    3.4113    0.4035 H         1 <0>         0.4239
     42 H14        -7.5224    2.1608   -2.0224 H         1 <0>         0.0790
     43 H15        -9.1991    1.7788   -1.5628 H         1 <0>         0.0894
     44 H16        -8.4046    3.9570   -4.0582 H         1 <0>         0.0879
     45 H17        -9.7808    2.8885   -3.6192 H         1 <0>         0.0847
     46 H18        -9.6717    5.9589   -3.6280 H         1 <0>         0.0786
     47 H19       -10.9757    4.8873   -4.2409 H         1 <0>         0.0853
     48 H20       -10.9894    6.0397   -1.7004 H         1 <0>         0.0707
     49 H21       -11.8421    4.5264   -2.1096 H         1 <0>         0.0723
@<TRIPOS>BOND
     1    1    6 ar
     2    1    2 ar
     3    1   30 1
     4    2    3 ar
     5    2   31 1
     6    3    4 ar
     7    3   29 1
     8    4    5 ar
     9    4   32 1
    10    5    6 ar
    11    5   33 1
    12    6    7 1
    13    7    8 1
    14    7   34 1
    15    7   35 1
    16    8    9 2
    17    8   10 2
    18    8   11 1
    19   11   12 1
    20   11   36 1
    21   12   17 ar
    22   12   13 ar
    23   13   14 ar
    24   13   37 1
    25   14   15 ar
    26   14   38 1
    27   15   16 ar
    28   15   18 1
    29   16   17 ar
    30   16   39 1
    31   17   40 1
    32   18   19 2
    33   18   20 2
    34   18   21 1
    35   21   22 1
    36   21   41 1
    37   22   23 1
    38   22   42 1
    39   22   43 1
    40   23   24 1
    41   23   28 1
    42   23   25 1
    43   25   26 1
    44   25   44 1
    45   25   45 1
    46   26   27 1
    47   26   46 1
    48   26   47 1
    49   27   28 1
    50   27   48 1
    51   27   49 1
@<TRIPOS>MOLECULE
ZINC11866828
   54    57     0     0     0
SMALL
USER_CHARGES
(2S)-3-(4-hydroxyphenyl)-2-[[2-[(6-oxo-7,8,9,10-tetrahydrobenzo[c]isochromen-3-yl)oxy]acetyl]amino]propanoic acid
@<TRIPOS>ATOM
      1 C1          2.7344   -5.4272   -3.0861 C.ar      1 <0>        -0.0981
      2 C2          2.8188   -5.0633   -4.4160 C.ar      1 <0>        -0.1404
      3 C3          3.5275   -3.9273   -4.7795 C.ar      1 <0>         0.0879
      4 C4          4.1448   -3.1564   -3.8052 C.ar      1 <0>        -0.1435
      5 C5          4.0526   -3.5215   -2.4760 C.ar      1 <0>        -0.1037
      6 C6          3.3458   -4.6541   -2.1164 C.ar      1 <0>        -0.0737
      7 C7          3.2468   -5.0500   -0.6657 C.3       1 <0>        -0.0751
      8 C8          2.0144   -4.3931   -0.0408 C.3       1 <0>         0.1122
      9 H1          1.1301   -4.6519   -0.6232 H         1 <0>         0.0928
     10 C9          1.8459   -4.8850    1.3737 C.2       1 <0>         0.4588
     11 O1          1.8674   -4.1008    2.2926 O.co2     1 <0>        -0.6262
     12 N1          2.1866   -2.9383   -0.0346 N.am      1 <0>        -0.6935
     13 C10         1.1068   -2.1320   -0.0200 C.2       1 <0>         0.5185
     14 O2         -0.0075   -2.6107   -0.0119 O.2       1 <0>        -0.5173
     15 C11         1.2839   -0.6354   -0.0136 C.3       1 <0>         0.0408
     16 O3          0.0021   -0.0041    0.0020 O.3       1 <0>        -0.2734
     17 C12        -0.0163    1.3533    0.0095 C.ar      1 <0>         0.1947
     18 C13         1.1844    2.0607    0.0018 C.ar      1 <0>        -0.2261
     19 C14         1.1832    3.4255    0.0092 C.ar      1 <0>        -0.0160
     20 C15        -0.0329    4.1185    0.0245 C.ar      1 <0>        -0.1952
     21 C16        -1.2470    3.4103    0.0324 C.ar      1 <0>         0.1856
     22 C17        -1.2286    2.0238    0.0189 C.ar      1 <0>        -0.1720
     23 O4         -2.4146    4.0877    0.0490 O.3       1 <0>        -0.2665
     24 C18        -2.4429    5.4270    0.0552 C.2       1 <0>         0.5138
     25 O5         -3.5210    5.9934    0.0724 O.2       1 <0>        -0.4658
     26 C19        -1.2592    6.2060    0.0430 C.2       1 <0>        -0.2243
     27 C20        -0.0589    5.5871    0.0334 C.2       1 <0>         0.0418
     28 C21         1.2491    6.3284    0.0396 C.3       1 <0>        -0.0927
     29 C22         1.0461    7.7826   -0.3826 C.3       1 <0>        -0.1210
     30 C23        -0.0938    8.3724    0.4569 C.3       1 <0>        -0.1214
     31 C24        -1.4000    7.7051    0.0323 C.3       1 <0>        -0.0579
     32 O6          3.6164   -3.5701   -6.0877 O.3       1 <0>        -0.5014
     33 H2          2.1868   -6.3140   -2.8030 H         1 <0>         0.1304
     34 H3          2.3373   -5.6650   -5.1727 H         1 <0>         0.1257
     35 H4          4.6968   -2.2715   -4.0856 H         1 <0>         0.1241
     36 H5          4.5328   -2.9215   -1.7172 H         1 <0>         0.1229
     37 H6          4.1414   -4.7205   -0.1373 H         1 <0>         0.0745
     38 H7          3.1586   -6.1338   -0.5901 H         1 <0>         0.1013
     39 H8          3.0778   -2.5554   -0.0411 H         1 <0>         0.3913
     40 H9          1.8284   -0.3302   -0.9072 H         1 <0>         0.0937
     41 H10         1.8454   -0.3398    0.8726 H         1 <0>         0.0985
     42 H11         2.1223    1.5253   -0.0097 H         1 <0>         0.1431
     43 H12         2.1168    3.9685    0.0037 H         1 <0>         0.1427
     44 H13        -2.1553    1.4690    0.0202 H         1 <0>         0.1551
     45 H14         1.6724    6.3016    1.0437 H         1 <0>         0.0943
     46 H15         1.9387    5.8461   -0.6532 H         1 <0>         0.0894
     47 H16         1.9617    8.3474   -0.2075 H         1 <0>         0.0750
     48 H17         0.7846    7.8252   -1.4399 H         1 <0>         0.0698
     49 H18         0.0901    8.1785    1.5136 H         1 <0>         0.0680
     50 H19        -0.1572    9.4472    0.2865 H         1 <0>         0.0741
     51 H20        -1.6597    8.0343   -0.9738 H         1 <0>         0.0785
     52 H21        -2.1934    7.9963    0.7207 H         1 <0>         0.0827
     53 H22         4.3764   -3.9507   -6.5486 H         1 <0>         0.3849
     54 O7          1.6718   -6.1944    1.6127 O.co2     1 <0>        -0.7614
@<TRIPOS>BOND
     1    1    6 ar
     2    1    2 ar
     3    1   33 1
     4    2    3 ar
     5    2   34 1
     6    3    4 ar
     7    3   32 1
     8    4    5 ar
     9    4   35 1
    10    5    6 ar
    11    5   36 1
    12    6    7 1
    13    7    8 1
    14    7   37 1
    15    7   38 1
    16    8    9 1
    17    8   10 1
    18    8   12 1
    19   10   11 2
    20   10   54 1
    21   12   13 am
    22   12   39 1
    23   13   14 2
    24   13   15 1
    25   15   16 1
    26   15   40 1
    27   15   41 1
    28   16   17 1
    29   17   22 ar
    30   17   18 ar
    31   18   19 ar
    32   18   42 1
    33   19   20 ar
    34   19   43 1
    35   20   27 1
    36   20   21 ar
    37   21   22 ar
    38   21   23 1
    39   22   44 1
    40   23   24 1
    41   24   25 2
    42   24   26 1
    43   26   31 1
    44   26   27 2
    45   27   28 1
    46   28   29 1
    47   28   45 1
    48   28   46 1
    49   29   30 1
    50   29   47 1
    51   29   48 1
    52   30   31 1
    53   30   49 1
    54   30   50 1
    55   31   51 1
    56   31   52 1
    57   32   53 1
@<TRIPOS>MOLECULE
ZINC22853836
   46    49     0     0     0
SMALL
USER_CHARGES
1-[(S)-(2-ethyl-6-hydroxy-thiazolo[2,3-e][1,2,4]triazol-5-yl)-(2-thienyl)methyl]piperidine-4-carboxamide
@<TRIPOS>ATOM
      1 C1         -1.6401   -1.1858   -1.4318 C.3       1 <0>        -0.1448
      2 C2         -1.2147   -0.8932    0.0084 C.3       1 <0>        -0.0217
      3 C3          0.0021   -0.0041    0.0020 C.2       1 <0>         0.2202
      4 N1         -0.0160    1.3271    0.0093 N.2       1 <0>        -0.5204
      5 C4          1.2098    1.7752    0.0000 C.2       1 <0>         0.2280
      6 N2          2.0790    0.7275   -0.0139 N.pl3     1 <0>        -0.3539
      7 N3          1.2407   -0.4177   -0.0120 N.2       1 <0>        -0.3012
      8 C5          3.4210    1.0231   -0.0255 C.2       1 <0>         0.4240
      9 C6          3.8392    2.2942   -0.0230 C.2       1 <0>        -0.3917
     10 S1          2.2908    3.1851   -0.0032 S.3       1 <0>         0.1050
     11 C7          5.2466    2.8328   -0.0336 C.3       1 <0>         0.3143
     12 H1          5.9520    2.0439   -0.3336 H         1 <0>         0.0775
     13 C8          5.5973    3.3488    1.3382 C.2       1 <0>        -0.0875
     14 C9          6.3178    2.7492    2.3173 C.2       1 <0>        -0.1782
     15 C10         6.5185    3.4206    3.5088 C.2       1 <0>        -0.1466
     16 C11         5.9800    4.6544    3.6668 C.2       1 <0>        -0.2105
     17 S2          5.1650    4.9053    2.0983 S.3       1 <0>         0.0603
     18 N4          5.3447    3.9274   -1.0083 N.3       1 <0>        -0.5319
     19 C12         4.9134    3.4857   -2.3408 C.3       1 <0>         0.0621
     20 C13         4.8900    4.6830   -3.2937 C.3       1 <0>        -0.1020
     21 C14         6.2905    5.2977   -3.3677 C.3       1 <0>        -0.1086
     22 C15         6.7356    5.7049   -1.9604 C.3       1 <0>        -0.0905
     23 C16         6.7055    4.4780   -1.0461 C.3       1 <0>         0.0511
     24 C17         6.2621    6.5130   -4.2583 C.2       1 <0>         0.5238
     25 O1          6.5676    7.5987   -3.8126 O.2       1 <0>        -0.5533
     26 N5          5.8971    6.3933   -5.5502 N.am      1 <0>        -0.8808
     27 O2          4.3330    0.0139   -0.0392 O.3       1 <0>        -0.6787
     28 H2         -2.5283   -1.8348   -1.4271 H         1 <0>         0.0633
     29 H3         -0.8191   -1.6917   -1.9610 H         1 <0>         0.0566
     30 H4         -1.8788   -0.2413   -1.9427 H         1 <0>         0.0596
     31 H5         -2.0357   -0.3873    0.5376 H         1 <0>         0.0893
     32 H6         -0.9760   -1.8377    0.5193 H         1 <0>         0.0844
     33 H7          6.7313    1.7627    2.1676 H         1 <0>         0.1282
     34 H8          7.0927    2.9673    4.3033 H         1 <0>         0.1231
     35 H9          6.0304    5.3143    4.5203 H         1 <0>         0.1761
     36 H10         5.6151    2.7287   -2.7210 H         1 <0>         0.0319
     37 H11         3.9052    3.0507   -2.2744 H         1 <0>         0.0930
     38 H12         4.5810    4.3486   -4.2951 H         1 <0>         0.0668
     39 H13         4.1773    5.4338   -2.9217 H         1 <0>         0.0784
     40 H14         6.9991    4.5718   -3.7932 H         1 <0>         0.0906
     41 H15         7.7580    6.1086   -2.0017 H         1 <0>         0.0684
     42 H16         6.0535    6.4735   -1.5681 H         1 <0>         0.0805
     43 H17         7.0110    4.7704   -0.0307 H         1 <0>         0.0806
     44 H18         7.3987    3.7163   -1.4325 H         1 <0>         0.0311
     45 H19         5.8764    7.2804   -6.2003 H         1 <0>         0.4154
     46 H20         5.6200    5.4085   -5.9545 H         1 <0>         0.4187
@<TRIPOS>BOND
     1    1    2 1
     2    1   28 1
     3    1   29 1
     4    1   30 1
     5    2    3 1
     6    2   31 1
     7    2   32 1
     8    3    7 2
     9    3    4 1
    10    4    5 2
    11    5   10 1
    12    5    6 1
    13    6    7 1
    14    6    8 1
    15    8    9 2
    16    8   27 1
    17    9   10 1
    18    9   11 1
    19   11   12 1
    20   11   13 1
    21   11   18 1
    22   13   17 1
    23   13   14 2
    24   14   15 1
    25   14   33 1
    26   15   16 2
    27   15   34 1
    28   16   17 1
    29   16   35 1
    30   18   23 1
    31   18   19 1
    32   19   20 1
    33   19   36 1
    34   19   37 1
    35   20   21 1
    36   20   38 1
    37   20   39 1
    38   21   22 1
    39   21   24 1
    40   21   40 1
    41   22   23 1
    42   22   41 1
    43   22   42 1
    44   23   43 1
    45   23   44 1
    46   24   25 2
    47   24   26 am
    48   26   45 1
    49   26   46 1
@<TRIPOS>MOLECULE
ZINC40053082
   47    50     0     0     0
SMALL
USER_CHARGES

@<TRIPOS>ATOM
      1 C1         -0.2202   -2.0189   -3.9206 C.ar      1 <0>        -0.1439
      2 C2          0.8859   -1.4934   -4.5750 C.ar      1 <0>        -0.0955
      3 C3          2.1459   -1.6007   -4.0268 C.ar      1 <0>        -0.1077
      4 C4          2.3169   -2.2408   -2.8050 C.ar      1 <0>         0.0596
      5 C5          1.1919   -2.7715   -2.1454 C.ar      1 <0>        -0.1377
      6 C6         -0.0772   -2.6524   -2.7188 C.ar      1 <0>        -0.0660
      7 C7          1.7001   -3.3671   -0.9114 C.2       1 <0>        -0.1575
      8 C8          3.0451   -3.1586   -0.9187 C.2       1 <0>        -0.0017
      9 O1          3.3962   -2.4943   -2.0392 O.3       1 <0>        -0.1645
     10 C9          3.9737   -3.5914    0.1340 C.2       1 <0>         0.5405
     11 O2          3.5443   -4.1053    1.1514 O.2       1 <0>        -0.4449
     12 C10         5.4183   -3.4047   -0.0400 C.2       1 <0>        -0.5017
     13 C11         6.3471   -4.3789   -0.1792 C.2       1 <0>         0.2693
     14 C12         7.6803   -3.7612   -0.3287 C.2       1 <0>         0.5144
     15 O3          8.7201   -4.3733   -0.4730 O.2       1 <0>        -0.5319
     16 N1          7.5736   -2.4209   -0.2821 N.am      1 <0>        -0.6098
     17 C13         6.1554   -2.0873   -0.1050 C.3       1 <0>         0.2660
     18 H1          5.7979   -1.4991   -0.9502 H         1 <0>         0.0754
     19 C14         5.9627   -1.3218    1.1787 C.ar      1 <0>        -0.0784
     20 C15         6.6532   -1.6970    2.3163 C.ar      1 <0>        -0.0752
     21 C16         6.4780   -0.9972    3.4944 C.ar      1 <0>        -0.1436
     22 C17         5.6087    0.0832    3.5353 C.ar      1 <0>         0.0902
     23 C18         4.9173    0.4579    2.3924 C.ar      1 <0>        -0.1448
     24 C19         5.1000   -0.2420    1.2154 C.ar      1 <0>        -0.1003
     25 O4          5.4343    0.7730    4.6932 O.3       1 <0>        -0.5008
     26 C20         8.6770   -1.4637   -0.3943 C.3       1 <0>         0.1417
     27 C21         8.8842   -1.0943   -1.8645 C.3       1 <0>        -0.1399
     28 C22        10.0365   -0.0946   -1.9817 C.3       1 <0>         0.0809
     29 O5         10.2300    0.2504   -3.3549 O.3       1 <0>        -0.5737
     30 O6          6.0943   -5.7087   -0.1811 O.3       1 <0>        -0.6495
     31 H2         -1.2009   -1.9222   -4.3626 H         1 <0>         0.1263
     32 H3          0.7576   -0.9952   -5.5246 H         1 <0>         0.1321
     33 H4          2.9987   -1.1886   -4.5457 H         1 <0>         0.1323
     34 H5         -0.9409   -3.0591   -2.2138 H         1 <0>         0.1262
     35 H6          1.1250   -3.8705   -0.1484 H         1 <0>         0.1643
     36 H7          7.3299   -2.5381    2.2839 H         1 <0>         0.1229
     37 H8          7.0171   -1.2911    4.3829 H         1 <0>         0.1239
     38 H9          4.2400    1.2986    2.4217 H         1 <0>         0.1234
     39 H10         4.5653    0.0521    0.3243 H         1 <0>         0.1235
     40 H11         6.0457    1.5137    4.8056 H         1 <0>         0.3828
     41 H12         8.4385   -0.5658    0.1758 H         1 <0>         0.0766
     42 H13         9.5889   -1.9126   -0.0005 H         1 <0>         0.0799
     43 H14         9.1227   -1.9922   -2.4346 H         1 <0>         0.0751
     44 H15         7.9723   -0.6454   -2.2584 H         1 <0>         0.0732
     45 H16         9.7980    0.8033   -1.4116 H         1 <0>         0.0456
     46 H17        10.9484   -0.5435   -1.5879 H         1 <0>         0.0467
     47 H18        10.9467    0.8822   -3.5045 H         1 <0>         0.3764
@<TRIPOS>BOND
     1    1    6 ar
     2    1    2 ar
     3    1   31 1
     4    2    3 ar
     5    2   32 1
     6    3    4 ar
     7    3   33 1
     8    4    9 1
     9    4    5 ar
    10    5    6 ar
    11    5    7 1
    12    6   34 1
    13    7    8 2
    14    7   35 1
    15    8    9 1
    16    8   10 1
    17   10   11 2
    18   10   12 1
    19   12   17 1
    20   12   13 2
    21   13   14 1
    22   13   30 1
    23   14   15 2
    24   14   16 am
    25   16   17 1
    26   16   26 1
    27   17   18 1
    28   17   19 1
    29   19   24 ar
    30   19   20 ar
    31   20   21 ar
    32   20   36 1
    33   21   22 ar
    34   21   37 1
    35   22   23 ar
    36   22   25 1
    37   23   24 ar
    38   23   38 1
    39   24   39 1
    40   25   40 1
    41   26   27 1
    42   26   41 1
    43   26   42 1
    44   27   28 1
    45   27   43 1
    46   27   44 1
    47   28   29 1
    48   28   45 1
    49   28   46 1
    50   29   47 1
@<TRIPOS>MOLECULE
ZINC58592007
   52    54     0     0     0
SMALL
USER_CHARGES

@<TRIPOS>ATOM
      1 C1         -0.9743   -3.1940    3.3547 C.3       1 <0>        -0.1473
      2 C2         -0.9859   -2.4261    2.0314 C.3       1 <0>        -0.1386
      3 C3         -0.3473   -3.2847    0.9379 C.3       1 <0>         0.1193
      4 N1         -0.3583   -2.5494   -0.3292 N.am      1 <0>        -0.6219
      5 C4          0.7200   -1.6072   -0.6388 C.3       1 <0>         0.1077
      6 C5          1.8451   -2.3423   -1.3700 C.3       1 <0>        -0.1429
      7 C6          2.9712   -1.3583   -1.6934 C.3       1 <0>        -0.1459
      8 C7         -1.3606   -2.7397   -1.2100 C.2       1 <0>         0.5968
      9 O1         -2.2977   -3.4578   -0.9189 O.2       1 <0>        -0.5275
     10 C8         -1.3206   -2.0772   -2.5265 C.ar      1 <0>        -0.2042
     11 C9         -1.2511   -0.6841   -2.6107 C.ar      1 <0>        -0.0494
     12 C10        -1.2142   -0.0711   -3.8437 C.ar      1 <0>        -0.2300
     13 C11        -1.2460   -0.8289   -5.0039 C.ar      1 <0>        -0.0487
     14 C12        -1.3151   -2.2052   -4.9376 C.ar      1 <0>        -0.2640
     15 C13        -1.3465   -2.8420   -3.7029 C.ar      1 <0>         0.3233
     16 N2         -1.4097   -4.2275   -3.6335 N.2       1 <0>        -1.0654
     17 S1         -1.4400   -5.1257   -5.0245 S.o2      1 <0>         2.6050
     18 O2         -2.6682   -4.8276   -5.6738 O.2       1 <0>        -1.0245
     19 O3         -0.1802   -4.9403   -5.6551 O.2       1 <0>        -1.0250
     20 C14        -1.5203   -6.8204   -4.5486 C.ar      1 <0>        -0.6039
     21 C15        -0.3523   -7.5360   -4.3480 C.ar      1 <0>        -0.0113
     22 C16        -0.4050   -8.8647   -3.9749 C.ar      1 <0>        -0.1296
     23 C17        -1.6331   -9.4844   -3.8006 C.ar      1 <0>         0.1238
     24 C18        -2.8111   -8.7626   -4.0030 C.ar      1 <0>         0.0618
     25 C19        -2.7481   -7.4275   -4.3719 C.ar      1 <0>         0.0012
     26 N3         -3.8666   -9.6373   -3.7563 N.am      1 <0>        -0.6382
     27 H1         -4.8100   -9.4200   -3.8172 H         1 <0>         0.4367
     28 C20        -3.3543  -10.8360   -3.4194 C.2       1 <0>         0.6856
     29 O4         -4.0076  -11.8243   -3.1414 O.2       1 <0>        -0.5626
     30 N4         -2.0094  -10.7753   -3.4373 N.am      1 <0>        -0.6417
     31 H2         -1.4055  -11.5061   -3.2321 H         1 <0>         0.4347
     32 H3         -1.4293   -2.5823    4.1337 H         1 <0>         0.0518
     33 H4         -1.5395   -4.1193    3.2427 H         1 <0>         0.0552
     34 H5          0.0541   -3.4275    3.6303 H         1 <0>         0.0516
     35 H6         -2.0143   -2.1926    1.7558 H         1 <0>         0.0653
     36 H7         -0.4207   -1.5008    2.1433 H         1 <0>         0.0580
     37 H8          0.6811   -3.5182    1.2135 H         1 <0>         0.0645
     38 H9         -0.9124   -4.2100    0.8259 H         1 <0>         0.0817
     39 H10         0.3343   -0.8096   -1.2737 H         1 <0>         0.0899
     40 H11         1.1063   -1.1803    0.2867 H         1 <0>         0.0646
     41 H12         2.2307   -3.1399   -0.7351 H         1 <0>         0.0562
     42 H13         1.4588   -2.7692   -2.2955 H         1 <0>         0.0761
     43 H14         2.5856   -0.5607   -2.3283 H         1 <0>         0.0569
     44 H15         3.3576   -0.9314   -0.7679 H         1 <0>         0.0479
     45 H16         3.7728   -1.8820   -2.2144 H         1 <0>         0.0523
     46 H17        -1.2267   -0.0886   -1.7100 H         1 <0>         0.1088
     47 H18        -1.1604    1.0057   -3.9068 H         1 <0>         0.1061
     48 H19        -1.2170   -0.3389   -5.9658 H         1 <0>         0.1051
     49 H20        -1.3399   -2.7884   -5.8463 H         1 <0>         0.1019
     50 H21         0.6042   -7.0533   -4.4842 H         1 <0>         0.1486
     51 H22         0.5082   -9.4199   -3.8197 H         1 <0>         0.1370
     52 H23        -3.6571   -6.8648   -4.5250 H         1 <0>         0.1471
@<TRIPOS>BOND
     1    1    2 1
     2    1   32 1
     3    1   33 1
     4    1   34 1
     5    2    3 1
     6    2   35 1
     7    2   36 1
     8    3    4 1
     9    3   37 1
    10    3   38 1
    11    4    5 1
    12    4    8 am
    13    5    6 1
    14    5   39 1
    15    5   40 1
    16    6    7 1
    17    6   41 1
    18    6   42 1
    19    7   43 1
    20    7   44 1
    21    7   45 1
    22    8    9 2
    23    8   10 1
    24   10   15 ar
    25   10   11 ar
    26   11   12 ar
    27   11   46 1
    28   12   13 ar
    29   12   47 1
    30   13   14 ar
    31   13   48 1
    32   14   15 ar
    33   14   49 1
    34   15   16 1
    35   16   17 1
    36   17   18 2
    37   17   19 2
    38   17   20 1
    39   20   25 ar
    40   20   21 ar
    41   21   22 ar
    42   21   50 1
    43   22   23 ar
    44   22   51 1
    45   23   30 1
    46   23   24 ar
    47   24   25 ar
    48   24   26 1
    49   25   52 1
    50   26   27 1
    51   26   28 am
    52   28   29 2
    53   28   30 am
    54   30   31 1
@<TRIPOS>MOLECULE
ZINC66254560
   34    35     0     0     0
SMALL
USER_CHARGES

@<TRIPOS>ATOM
      1 C1         -0.0184    1.5028    0.0103 C.3       1 <0>        -0.0780
      2 C2          0.0021   -0.0041    0.0020 C.2       1 <0>         0.1456
      3 C3          0.0052   -0.6819   -1.1779 C.2       1 <0>        -0.2710
      4 S1          0.0311   -2.3703   -0.5894 S.3       1 <0>        -0.2041
      5 C4          0.0350   -1.9952    1.1584 C.2       1 <0>         0.4964
      6 N1          0.0225   -0.6750    1.1411 N.2       1 <0>        -0.5739
      7 N2          0.0522   -2.8613    2.2447 N.2       1 <0>        -0.9985
      8 S2          0.0737   -4.4986    1.9979 S.o2      1 <0>         2.6130
      9 O1         -1.1700   -4.8354    1.3987 O.2       1 <0>        -0.9929
     10 O2          1.3204   -4.8009    1.3867 O.2       1 <0>        -0.9872
     11 C5          0.0920   -5.2644    3.5847 C.ar      1 <0>        -0.6116
     12 C6         -0.9777   -6.0401    3.9903 C.ar      1 <0>        -0.0182
     13 C7         -0.9636   -6.6410    5.2350 C.ar      1 <0>        -0.0555
     14 C8          0.1202   -6.4670    6.0757 C.ar      1 <0>        -0.6149
     15 C9          1.1909   -5.6923    5.6722 C.ar      1 <0>        -0.0779
     16 C10         1.1802   -5.0941    4.4233 C.ar      1 <0>         0.1870
     17 F1          2.2286   -4.3404    4.0257 F         1 <0>        -0.1046
     18 S3          0.1359   -7.2328    7.6625 S.o2      1 <0>         2.7062
     19 O3          1.0200   -6.4705    8.4727 O.2       1 <0>        -0.9553
     20 O4         -1.2214   -7.4571    8.0186 O.2       1 <0>        -0.9550
     21 N3          0.8299   -8.7251    7.4791 N.pl3     1 <0>        -1.2482
     22 S4         -0.0120   -0.0663   -2.8287 S.3       1 <0>        -0.0521
     23 C11         0.0033   -1.5620   -3.8550 C.3       1 <0>        -0.1442
     24 H1          1.0042    1.8801    0.0026 H         1 <0>         0.0693
     25 H2         -0.5455    1.8639   -0.8728 H         1 <0>         0.0673
     26 H3         -0.5286    1.8543    0.9071 H         1 <0>         0.0703
     27 H4         -1.8250   -6.1765    3.3347 H         1 <0>         0.1637
     28 H5         -1.8000   -7.2466    5.5513 H         1 <0>         0.1584
     29 H6          2.0373   -5.5563    6.3291 H         1 <0>         0.1636
     30 H7          1.1344   -9.0143    6.6047 H         1 <0>         0.4189
     31 H8          0.9320   -9.3101    8.2461 H         1 <0>         0.4220
     32 H9          0.9025   -2.1399   -3.6416 H         1 <0>         0.0799
     33 H10        -0.8772   -2.1645   -3.6322 H         1 <0>         0.0797
     34 H11        -0.0061   -1.2803   -4.9079 H         1 <0>         0.1016
@<TRIPOS>BOND
     1    1    2 1
     2    1   24 1
     3    1   25 1
     4    1   26 1
     5    2    6 1
     6    2    3 2
     7    3    4 1
     8    3   22 1
     9    4    5 1
    10    5    6 2
    11    5    7 1
    12    7    8 1
    13    8    9 2
    14    8   10 2
    15    8   11 1
    16   11   16 ar
    17   11   12 ar
    18   12   13 ar
    19   12   27 1
    20   13   14 ar
    21   13   28 1
    22   14   15 ar
    23   14   18 1
    24   15   16 ar
    25   15   29 1
    26   16   17 1
    27   18   19 2
    28   18   20 2
    29   18   21 1
    30   21   30 1
    31   21   31 1
    32   22   23 1
    33   23   32 1
    34   23   33 1
    35   23   34 1
@<TRIPOS>MOLECULE
ZINC13037208
   50    52     0     0     0
SMALL
USER_CHARGES
(2S)-2-[[4-[[(1R)-1-(2-naphthyl)ethyl]amino]-3-nitro-benzoyl]amino]propanoic acid
@<TRIPOS>ATOM
      1 C1          1.3517    8.0123    1.4991 C.3       1 <0>        -0.1664
      2 C2          1.0760    7.4812    0.0909 C.3       1 <0>         0.1744
      3 H1          0.0971    7.8258   -0.2422 H         1 <0>         0.0972
      4 C3          1.0989    5.9745    0.1090 C.ar      1 <0>        -0.0884
      5 C4          2.3218    5.3062    0.0889 C.ar      1 <0>        -0.1070
      6 C5          2.3776    3.9465    0.1044 C.ar      1 <0>        -0.0983
      7 C6          1.1861    3.2020    0.1412 C.ar      1 <0>        -0.0502
      8 C7          1.2037    1.7968    0.1578 C.ar      1 <0>        -0.1060
      9 C8          0.0298    1.1091    0.1930 C.ar      1 <0>        -0.1162
     10 C9         -1.1932    1.7774    0.2076 C.ar      1 <0>        -0.1169
     11 C10        -1.2488    3.1372    0.1983 C.ar      1 <0>        -0.1046
     12 C11        -0.0573    3.8816    0.1616 C.ar      1 <0>        -0.0497
     13 C12        -0.0750    5.2868    0.1451 C.ar      1 <0>        -0.0914
     14 N1          2.1057    7.9742   -0.8272 N.pl3     1 <0>        -0.7086
     15 C13         1.9696    9.2261   -1.4170 C.ar      1 <0>         0.3042
     16 C14         0.8030    9.9614   -1.2249 C.ar      1 <0>        -0.2116
     17 C15         0.6673   11.2025   -1.8032 C.ar      1 <0>         0.0167
     18 C16         1.6982   11.7206   -2.5928 C.ar      1 <0>        -0.1822
     19 C17         2.8659   10.9777   -2.7881 C.ar      1 <0>         0.0494
     20 C18         2.9976    9.7390   -2.2030 C.ar      1 <0>        -0.1357
     21 N2          4.2339    8.9515   -2.4092 N.pl3     1 <0>         0.0559
     22 O1          5.1774    9.4434   -3.0020 O.2       1 <0>        -0.1494
     23 O2          4.3076    7.8117   -1.9862 O.3       1 <0>        -0.2115
     24 C19         1.5540   13.0489   -3.2182 C.2       1 <0>         0.5564
     25 O3          2.4515   13.4985   -3.9044 O.2       1 <0>        -0.5479
     26 N3          0.4274   13.7641   -3.0290 N.am      1 <0>        -0.6924
     27 C20         0.2843   15.0832   -3.6500 C.3       1 <0>         0.0946
     28 H2          1.2529   15.5827   -3.6695 H         1 <0>         0.0921
     29 C21        -0.2344   14.9200   -5.0801 C.3       1 <0>        -0.1381
     30 C22        -0.6914   15.9104   -2.8531 C.2       1 <0>         0.4643
     31 O4         -1.2136   15.4457   -1.8676 O.co2     1 <0>        -0.6366
     32 H3          1.3352    9.1021    1.4860 H         1 <0>         0.0685
     33 H4          0.5855    7.6455    2.1822 H         1 <0>         0.0737
     34 H5          2.3306    7.6677    1.8322 H         1 <0>         0.0642
     35 H6          3.2388    5.8759    0.0602 H         1 <0>         0.1258
     36 H7          3.3325    3.4422    0.0881 H         1 <0>         0.1308
     37 H8          2.1438    1.2654    0.1423 H         1 <0>         0.1275
     38 H9          0.0460    0.0293    0.2052 H         1 <0>         0.1230
     39 H10        -2.1104    1.2077    0.2310 H         1 <0>         0.1233
     40 H11        -2.2037    3.6416    0.2144 H         1 <0>         0.1280
     41 H12        -1.0151    5.8180    0.1611 H         1 <0>         0.1309
     42 H13         2.8825    7.4274   -1.0236 H         1 <0>         0.4205
     43 H14         0.0053    9.5589   -0.6182 H         1 <0>         0.1512
     44 H15        -0.2362   11.7742   -1.6504 H         1 <0>         0.1503
     45 H16         3.6642   11.3754   -3.3972 H         1 <0>         0.1652
     46 H17        -0.2885   13.4055   -2.4816 H         1 <0>         0.4026
     47 H18        -0.3409   15.9015   -5.5422 H         1 <0>         0.0730
     48 H19         0.4713   14.3218   -5.6565 H         1 <0>         0.0492
     49 H20        -1.2030   14.4206   -5.0606 H         1 <0>         0.0483
     50 O5         -0.9804   17.1633   -3.2383 O.co2     1 <0>        -0.7522
@<TRIPOS>BOND
     1    1    2 1
     2    1   32 1
     3    1   33 1
     4    1   34 1
     5    2    3 1
     6    2    4 1
     7    2   14 1
     8    4   13 ar
     9    4    5 ar
    10    5    6 ar
    11    5   35 1
    12    6    7 ar
    13    6   36 1
    14    7   12 ar
    15    7    8 ar
    16    8    9 ar
    17    8   37 1
    18    9   10 ar
    19    9   38 1
    20   10   11 ar
    21   10   39 1
    22   11   12 ar
    23   11   40 1
    24   12   13 ar
    25   13   41 1
    26   14   15 1
    27   14   42 1
    28   15   20 ar
    29   15   16 ar
    30   16   17 ar
    31   16   43 1
    32   17   18 ar
    33   17   44 1
    34   18   19 ar
    35   18   24 1
    36   19   20 ar
    37   19   45 1
    38   20   21 1
    39   21   22 2
    40   21   23 1
    41   24   25 2
    42   24   26 am
    43   26   27 1
    44   26   46 1
    45   27   28 1
    46   27   29 1
    47   27   30 1
    48   29   47 1
    49   29   48 1
    50   29   49 1
    51   30   31 2
    52   30   50 1
@<TRIPOS>MOLECULE
ZINC16926126
   43    45     0     0     0
SMALL
USER_CHARGES
2-[[2-[(5R)-3-(4-hydroxyphenyl)-2,4-dioxo-thiazolidin-5-yl]acetyl]amino]-4-methyl-benzoic acid
@<TRIPOS>ATOM
      1 C1          7.9332   -3.2012    0.1855 C.3       1 <0>        -0.1060
      2 C2          6.8533   -3.7535   -0.7087 C.ar      1 <0>        -0.0780
      3 C3          7.0587   -4.9491   -1.3787 C.ar      1 <0>        -0.1521
      4 C4          6.0789   -5.4646   -2.1987 C.ar      1 <0>        -0.0584
      5 C5          4.8690   -4.7825   -2.3528 C.ar      1 <0>        -0.1466
      6 C6          4.6667   -3.5692   -1.6775 C.ar      1 <0>         0.1716
      7 C7          5.6657   -3.0657   -0.8550 C.ar      1 <0>        -0.1381
      8 N1          3.4679   -2.8765   -1.8269 N.am      1 <0>        -0.6359
      9 C8          2.9519   -2.1906   -0.7878 C.2       1 <0>         0.5152
     10 O1          3.5748   -2.1012    0.2490 O.2       1 <0>        -0.5322
     11 C9          1.6011   -1.5346   -0.9142 C.3       1 <0>        -0.1215
     12 C10         1.2528   -0.8273    0.3970 C.3       1 <0>        -0.0584
     13 H1          1.3873   -1.4921    1.2503 H         1 <0>         0.1720
     14 C11        -0.1563   -0.2534    0.3591 C.2       1 <0>         0.5269
     15 O2         -1.1381   -0.9537    0.2345 O.2       1 <0>        -0.4423
     16 N2         -0.2360    1.0618    0.4719 N.am      1 <0>        -0.5377
     17 C12         0.8397    1.8587    0.6116 C.2       1 <0>         0.5499
     18 O3          0.8667    3.0692    0.7218 O.2       1 <0>        -0.4141
     19 S1          2.2187    0.7227    0.5972 S.3       1 <0>        -0.1090
     20 C13        -1.5064    1.6574    0.4387 C.ar      1 <0>         0.0868
     21 C14        -2.0241    2.2529    1.5807 C.ar      1 <0>        -0.0779
     22 C15        -3.2718    2.8434    1.5461 C.ar      1 <0>        -0.1345
     23 C16        -4.0126    2.8319    0.3732 C.ar      1 <0>         0.1213
     24 C17        -3.4979    2.2320   -0.7669 C.ar      1 <0>        -0.1333
     25 C18        -2.2479    1.6462   -0.7347 C.ar      1 <0>        -0.0732
     26 O4         -5.2430    3.4093    0.3409 O.3       1 <0>        -0.4970
     27 C19         3.8143   -5.3309   -3.2240 C.2       1 <0>         0.4959
     28 O5          2.7302   -4.7852   -3.2830 O.co2     1 <0>        -0.6363
     29 H2          7.7974   -3.5827    1.1975 H         1 <0>         0.0657
     30 H3          8.9090   -3.5085   -0.1907 H         1 <0>         0.0618
     31 H4          7.8744   -2.1128    0.1966 H         1 <0>         0.0618
     32 H5          7.9918   -5.4793   -1.2576 H         1 <0>         0.1166
     33 H6          6.2440   -6.3969   -2.7182 H         1 <0>         0.1332
     34 H7          5.5134   -2.1345   -0.3294 H         1 <0>         0.1368
     35 H8          3.0042   -2.8878   -2.6788 H         1 <0>         0.4256
     36 H9          0.8479   -2.2925   -1.1294 H         1 <0>         0.1333
     37 H10         1.6254   -0.8061   -1.7246 H         1 <0>         0.1134
     38 H11        -1.4494    2.2579    2.4951 H         1 <0>         0.1325
     39 H12        -3.6727    3.3109    2.4333 H         1 <0>         0.1393
     40 H13        -4.0750    2.2233   -1.6798 H         1 <0>         0.1402
     41 H14        -1.8470    1.1798   -1.6225 H         1 <0>         0.1342
     42 H15        -5.9654    2.8087    0.5701 H         1 <0>         0.3949
     43 O6          4.0523   -6.4376   -3.9552 O.co2     1 <0>        -0.7465
@<TRIPOS>BOND
     1    1    2 1
     2    1   29 1
     3    1   30 1
     4    1   31 1
     5    2    7 ar
     6    2    3 ar
     7    3    4 ar
     8    3   32 1
     9    4    5 ar
    10    4   33 1
    11    5    6 ar
    12    5   27 1
    13    6    7 ar
    14    6    8 1
    15    7   34 1
    16    8    9 am
    17    8   35 1
    18    9   10 2
    19    9   11 1
    20   11   12 1
    21   11   36 1
    22   11   37 1
    23   12   13 1
    24   12   19 1
    25   12   14 1
    26   14   15 2
    27   14   16 am
    28   16   17 am
    29   16   20 1
    30   17   18 2
    31   17   19 1
    32   20   25 ar
    33   20   21 ar
    34   21   22 ar
    35   21   38 1
    36   22   23 ar
    37   22   39 1
    38   23   24 ar
    39   23   26 1
    40   24   25 ar
    41   24   40 1
    42   25   41 1
    43   26   42 1
    44   27   28 2
    45   27   43 1
@<TRIPOS>MOLECULE
ZINC43743360
   59    62     0     0     0
SMALL
USER_CHARGES

@<TRIPOS>ATOM
      1 C1         -0.0187    1.5258    0.0104 C.3       1 <0>        -0.1375
      2 C2          0.0021   -0.0041    0.0020 C.3       1 <0>        -0.0364
      3 C3          0.7627   -0.5010   -1.2125 C.3       1 <0>        -0.1540
      4 C4          2.1460    0.1682   -1.1865 C.3       1 <0>         0.1108
      5 H1          2.0210    1.2468   -1.2817 H         1 <0>         0.0647
      6 C5          2.8943   -0.1336    0.1084 C.3       1 <0>        -0.0551
      7 H2          3.1228   -1.1985    0.1509 H         1 <0>         0.0866
      8 C6          2.0703    0.2568    1.3457 C.3       1 <0>        -0.0747
      9 H3          1.8873    1.3313    1.3415 H         1 <0>         0.0927
     10 C7          0.7514   -0.5272    1.2570 C.3       1 <0>        -0.0877
     11 H4          0.9384   -1.5975    1.1705 H         1 <0>         0.0939
     12 C8         -0.2628   -0.2347    2.3683 C.3       1 <0>        -0.1107
     13 C9         -1.6150   -0.6404    1.7211 C.3       1 <0>        -0.1425
     14 C10        -1.4132   -0.5413    0.1886 C.3       1 <0>         0.1078
     15 C11        -1.5425   -1.9028   -0.4443 C.2       1 <0>         0.3542
     16 O1         -0.5831   -2.6336   -0.5060 O.2       1 <0>        -0.4051
     17 C12        -2.8691   -2.3524   -1.0002 C.3       1 <0>        -0.1943
     18 S1         -2.7017   -4.0224   -1.6884 S.3       1 <0>        -0.1488
     19 C13        -4.3620   -4.4105   -2.3074 C.3       1 <0>        -0.1633
     20 C14        -4.3624   -5.7902   -2.9135 C.2       1 <0>         0.5106
     21 O2         -3.3376   -6.4506   -2.9266 O.co2     1 <0>        -0.6694
     22 O3         -5.3875   -6.2462   -3.3907 O.co2     1 <0>        -0.6883
     23 O4         -2.3643    0.3618   -0.3787 O.3       1 <0>        -0.5390
     24 C15         2.8331   -0.1316    2.6137 C.3       1 <0>        -0.1130
     25 C16         4.1351    0.6714    2.6978 C.3       1 <0>        -0.0954
     26 C17         4.9136    0.4430    1.4157 C.2       1 <0>        -0.0279
     27 C18         6.1820    0.0650    1.4929 C.2       1 <0>        -0.2275
     28 C19         6.9631   -0.1865    0.2720 C.2       1 <0>         0.4086
     29 O5          8.1382   -0.4956    0.3378 O.2       1 <0>        -0.4702
     30 C20         6.2906   -0.0562   -1.0317 C.2       1 <0>        -0.2422
     31 C21         5.0253    0.3296   -1.0853 C.2       1 <0>        -0.0537
     32 C22         4.2018    0.6640    0.1347 C.3       1 <0>        -0.0130
     33 C23         3.8431    2.1495    0.0613 C.3       1 <0>        -0.1451
     34 O6          2.9162   -0.3108   -2.2907 O.3       1 <0>        -0.5589
     35 H5          1.0039    1.9031    0.0027 H         1 <0>         0.0614
     36 H6         -0.5459    1.8868   -0.8726 H         1 <0>         0.0639
     37 H7         -0.5289    1.8773    0.9072 H         1 <0>         0.0601
     38 H8          0.8732   -1.5843   -1.1637 H         1 <0>         0.1060
     39 H9          0.2321   -0.2216   -2.1227 H         1 <0>         0.0677
     40 H10        -0.0577   -0.8450    3.2478 H         1 <0>         0.0724
     41 H11        -0.2601    0.8250    2.6237 H         1 <0>         0.0745
     42 H12        -1.8711   -1.6628    1.9993 H         1 <0>         0.0743
     43 H13        -2.4022    0.0429    2.0398 H         1 <0>         0.0853
     44 H14        -3.6129   -2.3606   -0.2035 H         1 <0>         0.1022
     45 H15        -3.1855   -1.6658   -1.7855 H         1 <0>         0.1080
     46 H16        -5.0745   -4.3755   -1.4832 H         1 <0>         0.0749
     47 H17        -4.6470   -3.6807   -3.0653 H         1 <0>         0.0752
     48 H18        -3.2828    0.0725   -0.2901 H         1 <0>         0.3787
     49 H19         2.2175    0.0828    3.4874 H         1 <0>         0.0764
     50 H20         3.0646   -1.1964    2.5861 H         1 <0>         0.0700
     51 H21         3.9073    1.7318    2.8061 H         1 <0>         0.0845
     52 H22         4.7227    0.3316    3.5507 H         1 <0>         0.0797
     53 H23         6.6458   -0.0589    2.4603 H         1 <0>         0.1337
     54 H24         6.8284   -0.2753   -1.9423 H         1 <0>         0.1344
     55 H25         4.5604    0.4090   -2.0568 H         1 <0>         0.1593
     56 H26         3.2199    2.4155    0.9151 H         1 <0>         0.0715
     57 H27         4.7559    2.7450    0.0782 H         1 <0>         0.0613
     58 H28         3.2979    2.3464   -0.8618 H         1 <0>         0.0706
     59 H29         2.5221   -0.1268   -3.1544 H         1 <0>         0.3778
@<TRIPOS>BOND
     1    1    2 1
     2    1   35 1
     3    1   36 1
     4    1   37 1
     5    2   10 1
     6    2   14 1
     7    2    3 1
     8    3    4 1
     9    3   38 1
    10    3   39 1
    11    4    5 1
    12    4    6 1
    13    4   34 1
    14    6    7 1
    15    6   32 1
    16    6    8 1
    17    8    9 1
    18    8   10 1
    19    8   24 1
    20   10   11 1
    21   10   12 1
    22   12   13 1
    23   12   40 1
    24   12   41 1
    25   13   14 1
    26   13   42 1
    27   13   43 1
    28   14   15 1
    29   14   23 1
    30   15   16 2
    31   15   17 1
    32   17   18 1
    33   17   44 1
    34   17   45 1
    35   18   19 1
    36   19   20 1
    37   19   46 1
    38   19   47 1
    39   20   21 2
    40   20   22 1
    41   23   48 1
    42   24   25 1
    43   24   49 1
    44   24   50 1
    45   25   26 1
    46   25   51 1
    47   25   52 1
    48   26   32 1
    49   26   27 2
    50   27   28 1
    51   27   53 1
    52   28   29 2
    53   28   30 1
    54   30   31 2
    55   30   54 1
    56   31   32 1
    57   31   55 1
    58   32   33 1
    59   33   56 1
    60   33   57 1
    61   33   58 1
    62   34   59 1
@<TRIPOS>MOLECULE
ZINC58837424
   43    45     0     0     0
SMALL
USER_CHARGES

@<TRIPOS>ATOM
      1 C1          2.0446    1.5138    1.9695 C.ar      1 <0>        -0.1393
      2 C2          2.4947    2.1769    0.8410 C.ar      1 <0>        -0.0668
      3 C3          2.9145    1.4643   -0.2673 C.ar      1 <0>        -0.1662
      4 C4          2.8867    0.0825   -0.2549 C.ar      1 <0>         0.1507
      5 C5          2.4329   -0.5933    0.8827 C.ar      1 <0>        -0.1043
      6 C6          2.0113    0.1355    1.9975 C.ar      1 <0>        -0.0519
      7 C7          2.3992   -2.0671    0.9049 C.2       1 <0>         0.1734
      8 N1          2.7912   -2.7408   -0.1326 N.2       1 <0>        -0.2224
      9 N2          2.8564   -4.1391   -0.0762 N.am      1 <0>        -0.4090
     10 C8          4.0476   -4.7092   -0.1792 C.2       1 <0>         0.5273
     11 O1          4.9657   -3.9638   -0.4475 O.2       1 <0>        -0.4878
     12 C9          4.4095   -6.1443   -0.0086 C.3       1 <0>        -0.1158
     13 C10         3.2511   -7.0844   -0.3473 C.3       1 <0>        -0.0918
     14 H1          3.0416   -7.0412   -1.4161 H         1 <0>         0.1293
     15 S1          1.7881   -6.5333    0.5906 S.3       1 <0>        -0.0974
     16 C11         1.6695   -4.8387    0.0896 C.2       1 <0>         0.3914
     17 N3          0.5141   -4.2737   -0.1184 N.2       1 <0>        -0.6495
     18 C12         3.6080   -8.4949    0.0454 C.2       1 <0>         0.5266
     19 O2          4.2820   -8.6973    1.0332 O.2       1 <0>        -0.4778
     20 N4          3.1782   -9.5315   -0.7012 N.am      1 <0>        -0.6566
     21 C13         3.4194  -10.8444   -0.2806 C.ar      1 <0>         0.1097
     22 C14         3.6594  -11.8416   -1.2188 C.ar      1 <0>        -0.1468
     23 C15         3.8983  -13.1402   -0.8093 C.ar      1 <0>        -0.1226
     24 C16         3.9007  -13.4558    0.5340 C.ar      1 <0>        -0.0927
     25 C17         3.6611  -12.4611    1.4854 C.ar      1 <0>        -0.1162
     26 C18         3.4247  -11.1487    1.0712 C.ar      1 <0>        -0.0783
     27 C19         3.6626  -12.7953    2.9226 C.2       1 <0>         0.5199
     28 O3          3.8737  -13.9447    3.2829 O.co2     1 <0>        -0.6864
     29 O4          3.4526  -11.9229    3.7534 O.co2     1 <0>        -0.6811
     30 F1          3.2961   -0.6133   -1.3382 F         1 <0>        -0.1100
     31 H2          1.7227    2.0776    2.8326 H         1 <0>         0.1366
     32 H3          2.5178    3.2566    0.8258 H         1 <0>         0.1366
     33 H4          3.2644    1.9885   -1.1443 H         1 <0>         0.1407
     34 H5          1.6600   -0.3795    2.8794 H         1 <0>         0.1403
     35 H6          2.0483   -2.5860    1.7847 H         1 <0>         0.1267
     36 H7          5.2528   -6.3751   -0.6595 H         1 <0>         0.1349
     37 H8          4.7088   -6.3119    1.0260 H         1 <0>         0.1419
     38 H9         -0.3031   -4.7818    0.0036 H         1 <0>         0.3723
     39 H10         2.7017   -9.3675   -1.5300 H         1 <0>         0.4080
     40 H11         3.6589  -11.6011   -2.2716 H         1 <0>         0.1166
     41 H12         4.0833  -13.9104   -1.5434 H         1 <0>         0.1201
     42 H13         4.0874  -14.4716    0.8498 H         1 <0>         0.1290
     43 H14         3.2428  -10.3743    1.8018 H         1 <0>         0.1386
@<TRIPOS>BOND
     1    1    6 ar
     2    1    2 ar
     3    1   31 1
     4    2    3 ar
     5    2   32 1
     6    3    4 ar
     7    3   33 1
     8    4    5 ar
     9    4   30 1
    10    5    6 ar
    11    5    7 1
    12    6   34 1
    13    7    8 2
    14    7   35 1
    15    8    9 1
    16    9   16 1
    17    9   10 am
    18   10   11 2
    19   10   12 1
    20   12   13 1
    21   12   36 1
    22   12   37 1
    23   13   14 1
    24   13   15 1
    25   13   18 1
    26   15   16 1
    27   16   17 2
    28   17   38 1
    29   18   19 2
    30   18   20 am
    31   20   21 1
    32   20   39 1
    33   21   26 ar
    34   21   22 ar
    35   22   23 ar
    36   22   40 1
    37   23   24 ar
    38   23   41 1
    39   24   25 ar
    40   24   42 1
    41   25   26 ar
    42   25   27 1
    43   26   43 1
    44   27   28 2
    45   27   29 1
@<TRIPOS>MOLECULE
ZINC09058784
   44    46     0     0     0
SMALL
USER_CHARGES

@<TRIPOS>ATOM
      1 C1          1.0586    1.8373    0.3793 C.3       1 <0>         0.0325
      2 O1          0.9383    0.4134    0.3884 O.3       1 <0>        -0.3923
      3 C2          1.4025   -0.2167   -0.8072 C.3       1 <0>         0.0692
      4 C3          1.2267   -1.7318   -0.6866 C.3       1 <0>        -0.1274
      5 C4          1.7237   -2.4064   -1.9667 C.3       1 <0>         0.1171
      6 N1          1.5553   -3.8571   -1.8512 N.am      1 <0>        -0.5642
      7 C5          2.5540   -4.6008   -1.3292 C.2       1 <0>         0.5789
      8 O2          3.5907   -4.0855   -0.9532 O.2       1 <0>        -0.5706
      9 C6          2.3481   -6.0552   -1.2292 C.2       1 <0>        -0.3946
     10 C7          3.3199   -6.8890   -0.7066 C.2       1 <0>         0.2833
     11 C8          3.2192   -8.3968   -0.5614 C.3       1 <0>        -0.1106
     12 C9          4.6908   -8.8003   -0.3016 C.3       1 <0>         0.0943
     13 H1          5.1885   -9.0785   -1.2305 H         1 <0>         0.1277
     14 N2          5.2580   -7.5472    0.2484 N.3       1 <0>        -0.4426
     15 N3          4.5243   -6.5078   -0.2422 N.pl3     1 <0>        -0.5333
     16 C10         4.7732   -9.9177    0.7063 C.ar      1 <0>        -0.0680
     17 C11         4.9087   -9.6269    2.0510 C.ar      1 <0>        -0.0948
     18 C12         4.9843  -10.6511    2.9758 C.ar      1 <0>        -0.0958
     19 C13         4.9240  -11.9684    2.5562 C.ar      1 <0>        -0.0243
     20 C14         4.7881  -12.2599    1.2111 C.ar      1 <0>        -0.0958
     21 C15         4.7076  -11.2341    0.2862 C.ar      1 <0>        -0.0110
     22 Cl1         4.5308  -11.5990   -1.4018 Cl        1 <0>        -0.0405
     23 Cl2         5.0196  -13.2548    3.7180 Cl        1 <0>        -0.0561
     24 C16         1.0558   -6.5827   -1.7122 C.2       1 <0>         0.5608
     25 N4          0.1577   -5.7151   -2.2073 N.2       1 <0>        -0.6746
     26 C17         0.3953   -4.4288   -2.2660 C.2       1 <0>         0.6350
     27 O3         -0.5628   -3.6278   -2.7716 O.3       1 <0>        -0.6677
     28 O4          0.8105   -7.7762   -1.6632 O.2       1 <0>        -0.5655
     29 H2          2.1060    2.1127    0.2565 H         1 <0>         0.0382
     30 H3          0.4763    2.2459   -0.4466 H         1 <0>         0.0400
     31 H4          0.6852    2.2395    1.3211 H         1 <0>         0.0821
     32 H5          0.8274    0.1493   -1.6577 H         1 <0>         0.0526
     33 H6          2.4572    0.0160   -0.9546 H         1 <0>         0.0480
     34 H7          1.8018   -2.0977    0.1639 H         1 <0>         0.0668
     35 H8          0.1720   -1.9645   -0.5392 H         1 <0>         0.0785
     36 H9          1.1486   -2.0405   -2.8172 H         1 <0>         0.0932
     37 H10         2.7784   -2.1737   -2.1141 H         1 <0>         0.0770
     38 H11         2.5882   -8.6637    0.2864 H         1 <0>         0.1077
     39 H12         2.8488   -8.8512   -1.4804 H         1 <0>         0.1304
     40 H13         5.2477   -7.5578    1.2573 H         1 <0>         0.3328
     41 H14         4.8366   -5.5895   -0.2531 H         1 <0>         0.4489
     42 H15         4.9557   -8.5990    2.3789 H         1 <0>         0.1420
     43 H16         5.0908  -10.4233    4.0261 H         1 <0>         0.1441
     44 H17         4.7410  -13.2879    0.8832 H         1 <0>         0.1485
@<TRIPOS>BOND
     1    1    2 1
     2    1   29 1
     3    1   30 1
     4    1   31 1
     5    2    3 1
     6    3    4 1
     7    3   32 1
     8    3   33 1
     9    4    5 1
    10    4   34 1
    11    4   35 1
    12    5    6 1
    13    5   36 1
    14    5   37 1
    15    6   26 1
    16    6    7 am
    17    7    8 2
    18    7    9 1
    19    9   10 2
    20    9   24 1
    21   10   15 1
    22   10   11 1
    23   11   12 1
    24   11   38 1
    25   11   39 1
    26   12   13 1
    27   12   14 1
    28   12   16 1
    29   14   15 1
    30   14   40 1
    31   15   41 1
    32   16   21 ar
    33   16   17 ar
    34   17   18 ar
    35   17   42 1
    36   18   19 ar
    37   18   43 1
    38   19   20 ar
    39   19   23 1
    40   20   21 ar
    41   20   44 1
    42   21   22 1
    43   24   25 1
    44   24   28 2
    45   25   26 2
    46   26   27 1
@<TRIPOS>MOLECULE
ZINC12382008
   45    46     0     0     0
SMALL
USER_CHARGES
(2R)-2-[[(E)-2-[(2-bromobenzoyl)amino]-3-(2-furyl)prop-2-enoyl]amino]-3-methyl-butanoic acid
@<TRIPOS>ATOM
      1 C1         -1.3374    5.2615    2.9003 C.3       1 <0>        -0.1407
      2 C2         -0.8986    4.2191    1.8700 C.3       1 <0>        -0.0781
      3 C3         -1.4056    4.6261    0.4850 C.3       1 <0>        -0.1533
      4 C4         -1.4803    2.8547    2.2454 C.3       1 <0>         0.1099
      5 H1         -1.2674    2.1382    1.4520 H         1 <0>         0.0811
      6 C5         -2.9715    2.9766    2.4252 C.2       1 <0>         0.4592
      7 O1         -3.4759    2.7054    3.4892 O.co2     1 <0>        -0.5987
      8 N1         -0.8737    2.3927    3.4963 N.am      1 <0>        -0.6767
      9 C6         -0.7290    1.0728    3.7279 C.2       1 <0>         0.5767
     10 O2         -1.1902    0.2633    2.9444 O.2       1 <0>        -0.5189
     11 C7         -0.0167    0.6124    4.9227 C.2       1 <0>         0.1397
     12 C8          1.3356    0.4745    4.8970 C.2       1 <0>        -0.1555
     13 C9          2.0667    0.8749    3.7518 C.2       1 <0>         0.0372
     14 C10         3.4195    0.6997    3.5492 C.2       1 <0>        -0.2048
     15 C11         3.7083    1.2439    2.2872 C.2       1 <0>        -0.2166
     16 C12         2.5489    1.7179    1.7819 C.2       1 <0>        -0.0340
     17 O3          1.5627    1.4903    2.6621 O.3       1 <0>        -0.1524
     18 N2         -0.7284    0.3147    6.0905 N.am      1 <0>        -0.6579
     19 C13        -2.0760    0.3329    6.0815 C.2       1 <0>         0.5086
     20 O4         -2.6748    0.5063    5.0375 O.2       1 <0>        -0.3880
     21 C14        -2.8259    0.1422    7.3403 C.ar      1 <0>        -0.1027
     22 C15        -2.1417   -0.0629    8.5401 C.ar      1 <0>        -0.0850
     23 C16        -2.8475   -0.2349    9.7123 C.ar      1 <0>        -0.1196
     24 C17        -4.2315   -0.2157    9.7002 C.ar      1 <0>        -0.0918
     25 C18        -4.9165   -0.0184    8.5153 C.ar      1 <0>        -0.1028
     26 C19        -4.2225    0.1605    7.3347 C.ar      1 <0>        -0.0469
     27 Br1        -5.1606    0.4289    5.7149 Br        1 <0>         0.0279
     28 H2         -1.0440    4.9328    3.8973 H         1 <0>         0.0414
     29 H3         -0.8604    6.2159    2.6774 H         1 <0>         0.0442
     30 H4         -2.4203    5.3785    2.8603 H         1 <0>         0.0667
     31 H5          0.1896    4.1585    1.8552 H         1 <0>         0.0534
     32 H6         -0.9912    5.5981    0.2175 H         1 <0>         0.0347
     33 H7         -1.0930    3.8834   -0.2491 H         1 <0>         0.0412
     34 H8         -2.4938    4.6866    0.4998 H         1 <0>         0.1052
     35 H9         -0.5761    3.0366    4.1579 H         1 <0>         0.3859
     36 H10         1.8524    0.0596    5.7497 H         1 <0>         0.1524
     37 H11         4.1195    0.2352    4.2279 H         1 <0>         0.1464
     38 H12         4.6765    1.2774    1.8100 H         1 <0>         0.1453
     39 H13         2.4338    2.1995    0.8220 H         1 <0>         0.1978
     40 H14        -0.2518    0.0952    6.9064 H         1 <0>         0.4066
     41 H15        -1.0619   -0.0829    8.5507 H         1 <0>         0.1306
     42 H16        -2.3191   -0.3898   10.6414 H         1 <0>         0.1331
     43 H17        -4.7790   -0.3558   10.6206 H         1 <0>         0.1337
     44 H18        -5.9964   -0.0046    8.5130 H         1 <0>         0.1384
     45 O5         -3.7395    3.3865    1.4035 O.co2     1 <0>        -0.7727
@<TRIPOS>BOND
     1    1    2 1
     2    1   28 1
     3    1   29 1
     4    1   30 1
     5    2    3 1
     6    2    4 1
     7    2   31 1
     8    3   32 1
     9    3   33 1
    10    3   34 1
    11    4    5 1
    12    4    6 1
    13    4    8 1
    14    6    7 2
    15    6   45 1
    16    8    9 am
    17    8   35 1
    18    9   10 2
    19    9   11 1
    20   11   12 2
    21   11   18 1
    22   12   13 1
    23   12   36 1
    24   13   17 1
    25   13   14 2
    26   14   15 1
    27   14   37 1
    28   15   16 2
    29   15   38 1
    30   16   17 1
    31   16   39 1
    32   18   19 am
    33   18   40 1
    34   19   20 2
    35   19   21 1
    36   21   26 ar
    37   21   22 ar
    38   22   23 ar
    39   22   41 1
    40   23   24 ar
    41   23   42 1
    42   24   25 ar
    43   24   43 1
    44   25   26 ar
    45   25   44 1
    46   26   27 1
@<TRIPOS>MOLECULE
ZINC13346796
   33    34     0     0     0
SMALL
USER_CHARGES
2-bromo-5-[[(2-methylfuran-3-carbonyl)amino]sulfamoyl]benzoic acid
@<TRIPOS>ATOM
      1 C1         -5.8428    4.7773   -4.7047 C.3       1 <0>        -0.0843
      2 C2         -4.6263    3.8885   -4.6677 C.2       1 <0>         0.0870
      3 C3         -3.4970    4.1116   -3.9357 C.2       1 <0>        -0.2453
      4 C4         -2.6034    2.9825   -4.2328 C.2       1 <0>        -0.1842
      5 C5         -3.2723    2.1991   -5.0926 C.2       1 <0>        -0.0326
      6 O1         -4.4705    2.7478   -5.3465 O.3       1 <0>        -0.1743
      7 C6         -3.2266    5.2498   -3.0394 C.2       1 <0>         0.6020
      8 O2         -4.0630    6.1204   -2.8929 O.2       1 <0>        -0.5274
      9 N1         -2.0525    5.3258   -2.3820 N.am      1 <0>        -0.5028
     10 N2         -1.7955    6.4078   -1.5299 N.pl3     1 <0>        -0.9027
     11 S1         -1.3677    6.1367    0.0467 S.o2      1 <0>         2.6976
     12 O3         -2.3733    5.3004    0.6023 O.2       1 <0>        -0.9340
     13 O4         -1.0375    7.4026    0.6014 O.2       1 <0>        -0.9432
     14 C7          0.1194    5.1917    0.0280 C.ar      1 <0>        -0.6905
     15 C8          1.3454    5.8343    0.0202 C.ar      1 <0>        -0.0201
     16 C9          2.5178    5.1011    0.0055 C.ar      1 <0>        -0.1283
     17 C10         2.4724    3.7208   -0.0016 C.ar      1 <0>        -0.0115
     18 C11         1.2381    3.0662    0.0067 C.ar      1 <0>        -0.1103
     19 C12         0.0586    3.8142    0.0162 C.ar      1 <0>         0.0238
     20 C13         1.1809    1.5907   -0.0007 C.2       1 <0>         0.4795
     21 O5          2.2085    0.9430   -0.0140 O.co2     1 <0>        -0.5914
     22 Br1         4.0765    2.7196   -0.0217 Br        1 <0>        -0.0090
     23 H1         -5.7300    5.5146   -5.4994 H         1 <0>         0.0890
     24 H2         -6.7293    4.1720   -4.8937 H         1 <0>         0.0794
     25 H3         -5.9488    5.2880   -3.7476 H         1 <0>         0.1095
     26 H4         -1.6119    2.8166   -3.8381 H         1 <0>         0.1627
     27 H5         -2.9035    1.2766   -5.5161 H         1 <0>         0.2121
     28 H6         -1.3854    4.6313   -2.4988 H         1 <0>         0.4245
     29 H7         -1.8681    7.3157   -1.8635 H         1 <0>         0.4270
     30 H8          1.3865    6.9135    0.0253 H         1 <0>         0.1441
     31 H9          3.4709    5.6089   -0.0009 H         1 <0>         0.1391
     32 H10        -0.8989    3.3147    0.0178 H         1 <0>         0.1569
     33 O6         -0.0110    0.9628    0.0073 O.co2     1 <0>        -0.7421
@<TRIPOS>BOND
     1    1    2 1
     2    1   23 1
     3    1   24 1
     4    1   25 1
     5    2    6 1
     6    2    3 2
     7    3    4 1
     8    3    7 1
     9    4    5 2
    10    4   26 1
    11    5    6 1
    12    5   27 1
    13    7    8 2
    14    7    9 am
    15    9   10 1
    16    9   28 1
    17   10   11 1
    18   10   29 1
    19   11   12 2
    20   11   13 2
    21   11   14 1
    22   14   19 ar
    23   14   15 ar
    24   15   16 ar
    25   15   30 1
    26   16   17 ar
    27   16   31 1
    28   17   18 ar
    29   17   22 1
    30   18   19 ar
    31   18   20 1
    32   19   32 1
    33   20   21 2
    34   20   33 1
@<TRIPOS>MOLECULE
ZINC05348669
   38    40     0     0     0
SMALL
USER_CHARGES

@<TRIPOS>ATOM
      1 C1         -0.0076    1.3600   -0.0055 C.2       1 <0>        -0.2242
      2 C2          1.3283    1.7900   -0.0209 C.2       1 <0>        -0.1226
      3 C3          2.1075    0.6505   -0.0280 C.2       1 <0>        -0.0428
      4 O1          1.2795   -0.4150   -0.0173 O.3       1 <0>        -0.1586
      5 C4          0.0072    0.0088   -0.0037 C.2       1 <0>         0.0113
      6 C5          3.5208    0.6074   -0.0440 C.2       1 <0>         0.1124
      7 C6          4.1662   -0.5935   -0.0495 C.2       1 <0>        -0.2414
      8 C7          5.6102   -0.8831   -0.0594 C.2       1 <0>         0.5497
      9 O2          6.4403    0.0080   -0.0638 O.2       1 <0>        -0.4515
     10 N1          5.9611   -2.1580   -0.0629 N.am      1 <0>        -0.5057
     11 C8          5.0387   -3.1420   -0.0576 C.2       1 <0>         0.2780
     12 S1          5.2895   -4.8355   -0.0603 S.2       1 <0>        -0.3303
     13 S2          3.4924   -2.2492   -0.0385 S.3       1 <0>         0.1008
     14 C9          7.3833   -2.5094   -0.0733 C.3       1 <0>         0.0644
     15 C10         7.8811   -2.6310    1.3439 C.2       1 <0>         0.5071
     16 O3          7.1225   -2.4427    2.2714 O.2       1 <0>        -0.5140
     17 N2          9.1692   -2.9490    1.5808 N.am      1 <0>        -0.6549
     18 C11         9.6562   -2.9673    2.8947 C.ar      1 <0>         0.1004
     19 C12         8.8326   -3.3888    3.9342 C.ar      1 <0>        -0.1036
     20 C13         9.3024   -3.4106    5.2312 C.ar      1 <0>        -0.1534
     21 C14        10.6016   -3.0117    5.5089 C.ar      1 <0>         0.1327
     22 C15        11.4382   -2.5855    4.4668 C.ar      1 <0>        -0.1472
     23 C16        10.9559   -2.5718    3.1540 C.ar      1 <0>        -0.0853
     24 C17        12.8180   -2.1605    4.7525 C.2       1 <0>         0.5215
     25 O4         13.5449   -1.7894    3.8411 O.co2     1 <0>        -0.6914
     26 O5         13.2381   -2.1784    5.9013 O.co2     1 <0>        -0.6683
     27 O6         11.0617   -3.0333    6.7850 O.3       1 <0>        -0.4739
     28 H1         -0.8839    1.9912    0.0073 H         1 <0>         0.1600
     29 H2          1.6779    2.8118   -0.0263 H         1 <0>         0.1642
     30 H3         -0.8653   -0.6276    0.0069 H         1 <0>         0.2129
     31 H4          4.0890    1.5259   -0.0520 H         1 <0>         0.1848
     32 H5          7.5189   -3.4601   -0.5889 H         1 <0>         0.1441
     33 H6          7.9459   -1.7321   -0.5906 H         1 <0>         0.1387
     34 H7          9.7591   -3.1653    0.8418 H         1 <0>         0.4115
     35 H8          7.8199   -3.7003    3.7245 H         1 <0>         0.1329
     36 H9          8.6569   -3.7387    6.0324 H         1 <0>         0.1244
     37 H10        11.5954   -2.2495    2.3456 H         1 <0>         0.1338
     38 H11        11.4745   -3.8697    7.0401 H         1 <0>         0.3836
@<TRIPOS>BOND
     1    1    5 2
     2    1    2 1
     3    1   28 1
     4    2    3 2
     5    2   29 1
     6    3    4 1
     7    3    6 1
     8    4    5 1
     9    5   30 1
    10    6    7 2
    11    6   31 1
    12    7   13 1
    13    7    8 1
    14    8    9 2
    15    8   10 am
    16   10   11 1
    17   10   14 1
    18   11   12 2
    19   11   13 1
    20   14   15 1
    21   14   32 1
    22   14   33 1
    23   15   16 2
    24   15   17 am
    25   17   18 1
    26   17   34 1
    27   18   23 ar
    28   18   19 ar
    29   19   20 ar
    30   19   35 1
    31   20   21 ar
    32   20   36 1
    33   21   22 ar
    34   21   27 1
    35   22   23 ar
    36   22   24 1
    37   23   37 1
    38   24   25 2
    39   24   26 1
    40   27   38 1
@<TRIPOS>MOLECULE
ZINC50006635
   46    49     0     0     0
SMALL
USER_CHARGES

@<TRIPOS>ATOM
      1 C1          0.0552    1.4322   -1.6279 C.3       1 <0>        -0.0626
      2 C2          0.0654   -0.0636   -1.4449 C.2       1 <0>        -0.1784
      3 C3         -0.9821   -0.9267   -1.4122 C.2       1 <0>        -0.1598
      4 C4         -0.7390   -2.2707   -1.2316 C.2       1 <0>        -0.1452
      5 C5          0.5558   -2.6923   -1.0906 C.2       1 <0>        -0.0439
      6 S1          1.4586   -1.1576   -1.2232 S.3       1 <0>         0.1209
      7 C6          1.0726   -4.0626   -0.8879 C.2       1 <0>         0.2827
      8 N1          2.3639   -4.3947   -0.7581 N.2       1 <0>        -0.5422
      9 H1          0.9791   -7.1639   -0.5158 H         1 <0>         0.4272
     10 C7          2.4721   -5.6999   -0.5911 C.2       1 <0>         0.5260
     11 N2          1.2175   -6.2287   -0.6131 N.pl3     1 <0>        -0.5133
     12 N3          0.3369   -5.1511   -0.8004 N.2       1 <0>        -0.3442
     13 N4          3.6298   -6.3925   -0.4269 N.2       1 <0>        -0.6549
     14 C8          4.7792   -5.7586   -0.4249 C.2       1 <0>         0.4545
     15 O1          4.8113   -4.4175   -0.5861 O.3       1 <0>        -0.6456
     16 C9          6.0366   -6.5108   -0.2465 C.ar      1 <0>        -0.0327
     17 C10         6.0068   -7.8985   -0.0852 C.ar      1 <0>        -0.0875
     18 C11         7.1836   -8.5987    0.0813 C.ar      1 <0>        -0.1215
     19 C12         8.3951   -7.9322    0.0899 C.ar      1 <0>        -0.1432
     20 C13         8.4360   -6.5522   -0.0692 C.ar      1 <0>         0.1224
     21 C14         7.2602   -5.8394   -0.2440 C.ar      1 <0>        -0.0757
     22 N5          9.6650   -5.8829   -0.0592 N.am      1 <0>        -0.6715
     23 C15         9.7494   -4.6363    0.4462 C.2       1 <0>         0.4892
     24 O2          8.7839   -4.1312    0.9787 O.2       1 <0>        -0.4849
     25 C16        11.0436   -3.8702    0.3498 C.3       1 <0>         0.0686
     26 H2         11.3614   -3.8109   -0.6911 H         1 <0>         0.1097
     27 C17        12.1317   -4.5723    1.1904 C.3       1 <0>        -0.1478
     28 C18        12.8873   -3.3709    1.8211 C.3       1 <0>        -0.1537
     29 C19        11.7260   -2.3645    2.0195 C.3       1 <0>         0.0456
     30 O3         10.8681   -2.5513    0.8803 O.3       1 <0>        -0.3481
     31 H3          1.0783    1.8077   -1.6083 H         1 <0>         0.0697
     32 H4         -0.4038    1.6780   -2.5855 H         1 <0>         0.0745
     33 H5         -0.5164    1.8929   -0.8222 H         1 <0>         0.0746
     34 H6         -1.9931   -0.5642   -1.5260 H         1 <0>         0.1277
     35 H7         -1.5544   -2.9782   -1.2014 H         1 <0>         0.1348
     36 H8          5.0625   -8.4227   -0.0907 H         1 <0>         0.1371
     37 H9          7.1586   -9.6712    0.2058 H         1 <0>         0.1229
     38 H10         9.3129   -8.4860    0.2211 H         1 <0>         0.1182
     39 H11         7.2903   -4.7675   -0.3726 H         1 <0>         0.1435
     40 H12        10.4561   -6.3161   -0.4161 H         1 <0>         0.4052
     41 H13        11.6826   -5.1967    1.9627 H         1 <0>         0.0836
     42 H14        12.7958   -5.1575    0.5543 H         1 <0>         0.0930
     43 H15        13.3359   -3.6463    2.7755 H         1 <0>         0.0869
     44 H16        13.6373   -2.9753    1.1362 H         1 <0>         0.0824
     45 H17        11.1867   -2.5859    2.9405 H         1 <0>         0.0646
     46 H18        12.1090   -1.3442    2.0404 H         1 <0>         0.0912
@<TRIPOS>BOND
     1    1    2 1
     2    1   31 1
     3    1   32 1
     4    1   33 1
     5    2    6 1
     6    2    3 2
     7    3    4 1
     8    3   34 1
     9    4    5 2
    10    4   35 1
    11    5    6 1
    12    5    7 1
    13    7    8 1
    14    7   12 2
    15    8   10 2
    16    9   11 1
    17   10   13 1
    18   10   11 1
    19   11   12 1
    20   13   14 2
    21   14   15 1
    22   14   16 1
    23   16   21 ar
    24   16   17 ar
    25   17   18 ar
    26   17   36 1
    27   18   19 ar
    28   18   37 1
    29   19   20 ar
    30   19   38 1
    31   20   21 ar
    32   20   22 1
    33   21   39 1
    34   22   23 am
    35   22   40 1
    36   23   24 2
    37   23   25 1
    38   25   26 1
    39   25   30 1
    40   25   27 1
    41   27   28 1
    42   27   41 1
    43   27   42 1
    44   28   29 1
    45   28   43 1
    46   28   44 1
    47   29   30 1
    48   29   45 1
    49   29   46 1
@<TRIPOS>MOLECULE
ZINC09738274
   42    45     0     0     0
SMALL
USER_CHARGES

@<TRIPOS>ATOM
      1 C1          0.0035    1.5181   -0.1570 C.2       1 <0>        -0.1821
      2 C2          1.2590    2.0945   -0.2009 C.2       1 <0>        -0.0392
      3 C3          2.3488    1.3117   -0.0083 C.2       1 <0>        -0.6781
      4 S1          1.6101   -0.2936    0.2453 S.3       1 <0>         0.1447
      5 C4         -0.1010    0.1872    0.0774 C.2       1 <0>        -0.1641
      6 S2          4.0523    1.7618   -0.0086 S.o2      1 <0>         2.6390
      7 O1          4.7834    0.5843   -0.3222 O.2       1 <0>        -1.0120
      8 O2          4.1579    2.9516   -0.7783 O.2       1 <0>        -1.0118
      9 N1          4.4520    2.1670    1.5465 N.2       1 <0>        -1.0711
     10 C5          5.7483    2.5678    1.8490 C.ar      1 <0>         0.3231
     11 C6          6.7079    2.6334    0.8422 C.ar      1 <0>        -0.2769
     12 C7          7.9873    3.0283    1.1371 C.ar      1 <0>         0.0206
     13 C8          8.3281    3.3654    2.4512 C.ar      1 <0>        -0.2702
     14 C9          7.3616    3.2983    3.4601 C.ar      1 <0>        -0.0386
     15 C10         6.0827    2.9081    3.1572 C.ar      1 <0>        -0.1813
     16 C11         9.7025    3.7898    2.7720 C.2       1 <0>         0.5789
     17 O3         10.5415    3.8473    1.8941 O.2       1 <0>        -0.4885
     18 N2         10.0292    4.1143    4.0387 N.am      1 <0>        -0.5033
     19 N3         11.2322    4.4858    4.3195 N.2       1 <0>        -0.0758
     20 C12        11.5788    4.6993    5.5676 C.2       1 <0>         0.0100
     21 C13        10.7950    4.4134    6.7913 C.ar      1 <0>        -0.1260
     22 C14         9.5396    3.8717    7.0262 C.ar      1 <0>        -0.1175
     23 C15         9.0845    3.7344    8.3255 C.ar      1 <0>         0.0987
     24 C16         9.8801    4.1367    9.3891 C.ar      1 <0>        -0.1296
     25 C17        11.1289    4.6763    9.1707 C.ar      1 <0>        -0.0605
     26 C18        11.6093    4.8245    7.8655 C.ar      1 <0>         0.1110
     27 N4         12.7793    5.3163    7.3776 N.2       1 <0>        -0.5316
     28 C19        12.8413    5.2730    6.0727 C.2       1 <0>         0.4279
     29 O4         13.8842    5.6877    5.3137 O.3       1 <0>        -0.4236
     30 F1          7.8625    3.2078    8.5594 F         1 <0>        -0.1308
     31 H1         -0.8813    2.1200   -0.3028 H         1 <0>         0.1380
     32 H2          1.3702    3.1527   -0.3862 H         1 <0>         0.1439
     33 H3         -0.9890   -0.4238    0.1453 H         1 <0>         0.1898
     34 H4          6.4442    2.3726   -0.1721 H         1 <0>         0.1096
     35 H5          8.7312    3.0786    0.3558 H         1 <0>         0.1235
     36 H6          7.6215    3.5576    4.4758 H         1 <0>         0.1024
     37 H7          5.3347    2.8607    3.9349 H         1 <0>         0.1261
     38 H8          9.3598    4.0685    4.7391 H         1 <0>         0.3921
     39 H9          8.9203    3.5589    6.1986 H         1 <0>         0.1290
     40 H10         9.5159    4.0258   10.3998 H         1 <0>         0.1460
     41 H11        11.7372    4.9854   10.0079 H         1 <0>         0.1431
     42 H12        14.6279    6.0364    5.8239 H         1 <0>         0.4154
@<TRIPOS>BOND
     1    1    5 2
     2    1    2 1
     3    1   31 1
     4    2    3 2
     5    2   32 1
     6    3    4 1
     7    3    6 1
     8    4    5 1
     9    5   33 1
    10    6    7 2
    11    6    8 2
    12    6    9 1
    13    9   10 1
    14   10   15 ar
    15   10   11 ar
    16   11   12 ar
    17   11   34 1
    18   12   13 ar
    19   12   35 1
    20   13   14 ar
    21   13   16 1
    22   14   15 ar
    23   14   36 1
    24   15   37 1
    25   16   17 2
    26   16   18 am
    27   18   19 1
    28   18   38 1
    29   19   20 2
    30   20   28 1
    31   20   21 1
    32   21   26 ar
    33   21   22 ar
    34   22   23 ar
    35   22   39 1
    36   23   24 ar
    37   23   30 1
    38   24   25 ar
    39   24   40 1
    40   25   26 ar
    41   25   41 1
    42   26   27 1
    43   27   28 2
    44   28   29 1
    45   29   42 1
@<TRIPOS>MOLECULE
ZINC07361541
   55    56     0     0     0
SMALL
USER_CHARGES
1-[(2,5-dimethylphenyl)carbamoyl]ethyl 2-(p-tolylsulfonylamino)propanoate
@<TRIPOS>ATOM
      1 C1         -6.8923   -3.3310   -7.4353 C.3       1 <0>        -0.1272
      2 C2         -5.6892   -2.8518   -8.2060 C.ar      1 <0>        -0.0251
      3 C3         -5.7120   -1.6157   -8.8243 C.ar      1 <0>        -0.1420
      4 C4         -4.6084   -1.1761   -9.5314 C.ar      1 <0>        -0.0112
      5 C5         -3.4818   -1.9723   -9.6193 C.ar      1 <0>        -0.6904
      6 C6         -3.4608   -3.2104   -9.0049 C.ar      1 <0>        -0.0214
      7 C7         -4.5628   -3.6482   -8.2943 C.ar      1 <0>        -0.1409
      8 S1         -2.0752   -1.4119  -10.5204 S.o2      1 <0>         2.6963
      9 O1         -2.5491   -0.4587  -11.4617 O.2       1 <0>        -0.9475
     10 O2         -1.3532   -2.5725  -10.9091 O.2       1 <0>        -0.9460
     11 N1         -1.1093   -0.5876   -9.4575 N.pl3     1 <0>        -1.1029
     12 C8         -0.4812   -1.2947   -8.3386 C.3       1 <0>         0.1687
     13 H1         -1.0682   -2.1796   -8.0926 H         1 <0>         0.1238
     14 C9          0.9359   -1.7160   -8.7326 C.3       1 <0>        -0.1714
     15 C10        -0.4193   -0.3836   -7.1398 C.2       1 <0>         0.4618
     16 O3         -0.8552    0.7410   -7.2125 O.2       1 <0>        -0.4912
     17 O4          0.1200   -0.8214   -5.9912 O.3       1 <0>        -0.3208
     18 C11         0.1460    0.1104   -4.8779 C.3       1 <0>         0.0716
     19 H2         -0.7015    0.7915   -4.9543 H         1 <0>         0.1154
     20 C12         1.4491    0.9115   -4.9138 C.3       1 <0>        -0.1676
     21 C13         0.0614   -0.6534   -3.5816 C.2       1 <0>         0.5163
     22 O5          0.0780   -1.8661   -3.5900 O.2       1 <0>        -0.4894
     23 N2         -0.0327    0.0111   -2.4128 N.am      1 <0>        -0.6630
     24 C14         0.0052   -0.6916   -1.2034 C.ar      1 <0>         0.1484
     25 C15         0.6315   -1.9296   -1.1372 C.ar      1 <0>        -0.1277
     26 C16         0.6614   -2.6235    0.0563 C.ar      1 <0>        -0.0693
     27 C17         0.0744   -2.0841    1.1865 C.ar      1 <0>        -0.1325
     28 C18        -0.5448   -0.8495    1.1252 C.ar      1 <0>        -0.0953
     29 C19        -0.5790   -0.1506   -0.0659 C.ar      1 <0>        -0.1212
     30 C20        -1.2550    1.1946   -0.1320 C.3       1 <0>        -0.1159
     31 C21         1.3348   -3.9698    0.1275 C.3       1 <0>        -0.1148
     32 H3         -7.5563   -3.8803   -8.1027 H         1 <0>         0.0817
     33 H4         -6.5683   -3.9853   -6.6259 H         1 <0>         0.0742
     34 H5         -7.4225   -2.4741   -7.0196 H         1 <0>         0.0737
     35 H6         -6.5920   -0.9935   -8.7554 H         1 <0>         0.1344
     36 H7         -4.6263   -0.2105  -10.0147 H         1 <0>         0.1417
     37 H8         -2.5822   -3.8343   -9.0773 H         1 <0>         0.1428
     38 H9         -4.5449   -4.6138   -7.8109 H         1 <0>         0.1354
     39 H10        -0.9594    0.3634   -9.5756 H         1 <0>         0.4287
     40 H11         1.5229   -0.8312   -8.9787 H         1 <0>         0.0717
     41 H12         1.4032   -2.2421   -7.9002 H         1 <0>         0.0878
     42 H13         0.8911   -2.3750   -9.5997 H         1 <0>         0.0933
     43 H14         1.5103    1.4639   -5.8514 H         1 <0>         0.0811
     44 H15         1.4686    1.6109   -4.0780 H         1 <0>         0.0839
     45 H16         2.2966    0.2303   -4.8374 H         1 <0>         0.0787
     46 H17        -0.1266    0.9766   -2.4100 H         1 <0>         0.4125
     47 H18         1.0906   -2.3510   -2.0192 H         1 <0>         0.1455
     48 H19         0.0994   -2.6287    2.1188 H         1 <0>         0.1240
     49 H20        -1.0026   -0.4311    2.0094 H         1 <0>         0.1272
     50 H21        -0.5307    1.9768    0.0952 H         1 <0>         0.0723
     51 H22        -1.6562    1.3507   -1.1334 H         1 <0>         0.0608
     52 H23        -2.0670    1.2293    0.5942 H         1 <0>         0.0735
     53 H24         0.6093   -4.7513   -0.0983 H         1 <0>         0.0725
     54 H25         2.1478   -4.0082   -0.5975 H         1 <0>         0.0672
     55 H26         1.7343   -4.1237    1.1299 H         1 <0>         0.0678
@<TRIPOS>BOND
     1    1    2 1
     2    1   32 1
     3    1   33 1
     4    1   34 1
     5    2    7 ar
     6    2    3 ar
     7    3    4 ar
     8    3   35 1
     9    4    5 ar
    10    4   36 1
    11    5    6 ar
    12    5    8 1
    13    6    7 ar
    14    6   37 1
    15    7   38 1
    16    8    9 2
    17    8   10 2
    18    8   11 1
    19   11   12 1
    20   11   39 1
    21   12   13 1
    22   12   14 1
    23   12   15 1
    24   14   40 1
    25   14   41 1
    26   14   42 1
    27   15   16 2
    28   15   17 1
    29   17   18 1
    30   18   19 1
    31   18   20 1
    32   18   21 1
    33   20   43 1
    34   20   44 1
    35   20   45 1
    36   21   22 2
    37   21   23 am
    38   23   24 1
    39   23   46 1
    40   24   29 ar
    41   24   25 ar
    42   25   26 ar
    43   25   47 1
    44   26   27 ar
    45   26   31 1
    46   27   28 ar
    47   27   48 1
    48   28   29 ar
    49   28   49 1
    50   29   30 1
    51   30   50 1
    52   30   51 1
    53   30   52 1
    54   31   53 1
    55   31   54 1
    56   31   55 1
@<TRIPOS>MOLECULE
ZINC12402110
   59    62     0     0     0
SMALL
USER_CHARGES
2-[4-[2-[(2-hydroxyphenyl)amino]-4,4-dimethyl-6-oxo-1-cyclohexenyl]-4-oxo-butyl]isoindoline-1,3-dione
@<TRIPOS>ATOM
      1 C1         -0.3595    3.5730    5.6002 C.3       1 <0>        -0.1553
      2 C2         -1.2109    2.4524    6.2004 C.3       1 <0>        -0.0544
      3 C3         -0.3791    1.1706    6.2921 C.3       1 <0>        -0.1152
      4 C4          0.0455    0.7446    4.9115 C.2       1 <0>         0.3234
      5 C5         -0.7365    1.0437    3.8062 C.2       1 <0>        -0.3510
      6 C6         -1.9566    1.7488    3.9454 C.2       1 <0>         0.4101
      7 O1         -2.6275    1.9936    2.9638 O.2       1 <0>        -0.4608
      8 C7         -2.4266    2.1975    5.3049 C.3       1 <0>        -0.1502
      9 C8         -0.3107    0.6322    2.5174 C.2       1 <0>         0.3998
     10 O2          0.6700   -0.0733    2.3987 O.2       1 <0>        -0.4611
     11 C9         -1.0758    1.0707    1.2954 C.3       1 <0>        -0.1370
     12 C10        -0.3824    0.5364    0.0406 C.3       1 <0>        -0.1311
     13 C11        -1.2199    0.8835   -1.1919 C.3       1 <0>         0.1117
     14 N1         -0.5560    0.3719   -2.3934 N.am      1 <0>        -0.5753
     15 C12         0.3345    1.0658   -3.1249 C.2       1 <0>         0.5745
     16 O3          0.7100    2.1981   -2.8972 O.2       1 <0>        -0.4603
     17 C13         0.7816    0.2185   -4.2506 C.ar      1 <0>        -0.1411
     18 C14         1.6674    0.3940   -5.3016 C.ar      1 <0>        -0.0445
     19 C15         1.8603   -0.6298   -6.2159 C.ar      1 <0>        -0.0952
     20 C16         1.1755   -1.8235   -6.0860 C.ar      1 <0>        -0.0950
     21 C17         0.2864   -2.0133   -5.0397 C.ar      1 <0>        -0.0445
     22 C18         0.0834   -0.9986   -4.1182 C.ar      1 <0>        -0.1406
     23 C19        -0.7608   -0.8517   -2.9137 C.2       1 <0>         0.5740
     24 O4         -1.5133   -1.6945   -2.4683 O.2       1 <0>        -0.4587
     25 N2          1.1988    0.0709    4.7481 N.pl3     1 <0>        -0.6563
     26 C20         1.3850   -1.1616    5.3835 C.ar      1 <0>         0.1674
     27 C21         0.3381   -1.7520    6.0775 C.ar      1 <0>        -0.1683
     28 C22         0.5247   -2.9692    6.7042 C.ar      1 <0>        -0.0847
     29 C23         1.7527   -3.6022    6.6417 C.ar      1 <0>        -0.1383
     30 C24         2.8004   -3.0206    5.9524 C.ar      1 <0>        -0.1045
     31 C25         2.6206   -1.8027    5.3166 C.ar      1 <0>         0.0609
     32 O5          3.6483   -1.2321    4.6336 O.3       1 <0>        -0.4888
     33 C26        -1.6815    2.8580    7.5985 C.3       1 <0>        -0.1426
     34 H1         -0.9548    4.4832    5.5290 H         1 <0>         0.0673
     35 H2          0.5055    3.7535    6.2384 H         1 <0>         0.0636
     36 H3         -0.0226    3.2804    4.6057 H         1 <0>         0.0565
     37 H4          0.5031    1.3532    6.9056 H         1 <0>         0.1016
     38 H5         -0.9785    0.3801    6.7437 H         1 <0>         0.1081
     39 H6         -2.9572    3.0404    5.2153 H         1 <0>         0.0918
     40 H7         -3.0496    1.4212    5.7492 H         1 <0>         0.1037
     41 H8         -1.1043    2.0697    1.2607 H         1 <0>         0.0912
     42 H9         -2.0921    0.6797    1.3433 H         1 <0>         0.1080
     43 H10        -0.2782   -0.5459    0.1160 H         1 <0>         0.0751
     44 H11         0.6041    0.9909   -0.0508 H         1 <0>         0.0712
     45 H12        -2.2064    0.4290   -1.1005 H         1 <0>         0.0991
     46 H13        -1.3241    1.9658   -1.2673 H         1 <0>         0.0987
     47 H14         2.2049    1.3247   -5.4082 H         1 <0>         0.1429
     48 H15         2.5502   -0.4938   -7.0356 H         1 <0>         0.1436
     49 H16         1.3341   -2.6137   -6.8050 H         1 <0>         0.1436
     50 H17        -0.2457   -2.9482   -4.9430 H         1 <0>         0.1431
     51 H18         1.9011    0.4397    4.1898 H         1 <0>         0.4256
     52 H19        -0.6222   -1.2603    6.1275 H         1 <0>         0.1279
     53 H20        -0.2907   -3.4276    7.2440 H         1 <0>         0.1306
     54 H21         1.8935   -4.5538    7.1325 H         1 <0>         0.1296
     55 H22         3.7581   -3.5176    5.9060 H         1 <0>         0.1340
     56 H23         4.2022   -0.6493    5.1709 H         1 <0>         0.3843
     57 H24        -2.2849    2.0570    8.0255 H         1 <0>         0.0625
     58 H25        -0.8154    3.0392    8.2350 H         1 <0>         0.0633
     59 H26        -2.2794    3.7669    7.5312 H         1 <0>         0.0663
@<TRIPOS>BOND
     1    1    2 1
     2    1   34 1
     3    1   35 1
     4    1   36 1
     5    2    8 1
     6    2    3 1
     7    2   33 1
     8    3    4 1
     9    3   37 1
    10    3   38 1
    11    4    5 2
    12    4   25 1
    13    5    6 1
    14    5    9 1
    15    6    7 2
    16    6    8 1
    17    8   39 1
    18    8   40 1
    19    9   10 2
    20    9   11 1
    21   11   12 1
    22   11   41 1
    23   11   42 1
    24   12   13 1
    25   12   43 1
    26   12   44 1
    27   13   14 1
    28   13   45 1
    29   13   46 1
    30   14   23 am
    31   14   15 am
    32   15   16 2
    33   15   17 1
    34   17   22 ar
    35   17   18 ar
    36   18   19 ar
    37   18   47 1
    38   19   20 ar
    39   19   48 1
    40   20   21 ar
    41   20   49 1
    42   21   22 ar
    43   21   50 1
    44   22   23 1
    45   23   24 2
    46   25   26 1
    47   25   51 1
    48   26   31 ar
    49   26   27 ar
    50   27   28 ar
    51   27   52 1
    52   28   29 ar
    53   28   53 1
    54   29   30 ar
    55   29   54 1
    56   30   31 ar
    57   30   55 1
    58   31   32 1
    59   32   56 1
    60   33   57 1
    61   33   58 1
    62   33   59 1
@<TRIPOS>MOLECULE
ZINC24914441
   55    58     0     0     0
SMALL
USER_CHARGES
4-[[(E)-3-[(2R)-5-ethoxy-2-methyl-2,3-dihydrobenzofuran-6-yl]prop-2-enoyl]amino]-N-thiazol-2-yl-benzamide
@<TRIPOS>ATOM
      1 C1          6.8453    6.0090    0.0173 C.3       1 <0>        -0.1561
      2 C2          5.5730    6.8493    0.1440 C.3       1 <0>         0.0512
      3 O1          4.4316    5.9895    0.1359 O.3       1 <0>        -0.3052
      4 C3          3.2139    6.5805    0.2412 C.ar      1 <0>         0.1376
      5 C4          3.1128    7.9595    0.3451 C.ar      1 <0>        -0.1652
      6 C5          1.8764    8.5562    0.4576 C.ar      1 <0>        -0.1152
      7 C6          0.7092    7.7975    0.4709 C.ar      1 <0>         0.0678
      8 C7          0.7983    6.4172    0.3604 C.ar      1 <0>        -0.0812
      9 C8          2.0466    5.8012    0.2404 C.ar      1 <0>        -0.0821
     10 C9          2.1376    4.3397    0.1198 C.2       1 <0>         0.0115
     11 C10         1.0140    3.5906    0.1248 C.2       1 <0>        -0.2333
     12 C11         1.1045    2.1365    0.0047 C.2       1 <0>         0.5552
     13 O2          2.1927    1.6010   -0.0997 O.2       1 <0>        -0.5253
     14 N1         -0.0168    1.3889    0.0097 N.am      1 <0>        -0.6839
     15 C12         0.0728   -0.0012   -0.0082 C.ar      1 <0>         0.1868
     16 C13         1.0897   -0.6223   -0.7272 C.ar      1 <0>        -0.1313
     17 C14         1.1839   -1.9954   -0.7429 C.ar      1 <0>        -0.0643
     18 C15         0.2507   -2.7665   -0.0440 C.ar      1 <0>        -0.1549
     19 C16        -0.7726   -2.1397    0.6729 C.ar      1 <0>        -0.0326
     20 C17        -0.8582   -0.7660    0.6884 C.ar      1 <0>        -0.1540
     21 C18         0.3453   -4.2386   -0.0633 C.2       1 <0>         0.5610
     22 O3         -0.4674   -4.9081    0.5449 O.2       1 <0>        -0.4709
     23 N2          1.3326   -4.8415   -0.7549 N.am      1 <0>        -0.6323
     24 C19         1.4216   -6.2275   -0.7731 C.2       1 <0>         0.3152
     25 N3          0.6482   -7.1154   -0.1788 N.2       1 <0>        -0.5197
     26 C20         0.8727   -8.4089   -0.3032 C.2       1 <0>         0.0594
     27 C21         1.9286   -8.8123   -1.0513 C.2       1 <0>        -0.2333
     28 S1          2.5842   -7.2356   -1.5777 S.3       1 <0>         0.0453
     29 O4         -0.3912    8.5900    0.6059 O.3       1 <0>        -0.2975
     30 C22        -0.0492    9.9403    0.2507 C.3       1 <0>         0.0812
     31 H1         -0.6834   10.6489    0.8035 H         1 <0>         0.1216
     32 C23         1.4607   10.0103    0.5792 C.3       1 <0>        -0.1084
     33 C24        -0.2914   10.1863   -1.2398 C.3       1 <0>        -0.1802
     34 H2          7.7239    6.6708    0.0235 H         1 <0>         0.0814
     35 H3          6.8188    5.4435   -0.9259 H         1 <0>         0.0690
     36 H4          6.9078    5.3085    0.8631 H         1 <0>         0.0692
     37 H5          5.5995    7.4148    1.0872 H         1 <0>         0.0650
     38 H6          5.5105    7.5498   -0.7018 H         1 <0>         0.0648
     39 H7          4.0059    8.5669    0.3419 H         1 <0>         0.1358
     40 H8         -0.0998    5.8174    0.3667 H         1 <0>         0.1412
     41 H9          3.1209    3.8557    0.0254 H         1 <0>         0.1478
     42 H10         0.0307    4.0746    0.2192 H         1 <0>         0.1358
     43 H11        -1.0027    1.8763    0.0279 H         1 <0>         0.4404
     44 H12         1.8080   -0.0260   -1.2704 H         1 <0>         0.1479
     45 H13         1.9758   -2.4766   -1.2978 H         1 <0>         0.1276
     46 H14        -1.4950   -2.7325    1.2142 H         1 <0>         0.1422
     47 H15        -1.6486   -0.2811    1.2421 H         1 <0>         0.1366
     48 H16         2.0679   -4.2359   -1.3050 H         1 <0>         0.4511
     49 H17         0.2327   -9.1300    0.1834 H         1 <0>         0.1729
     50 H18         2.2777   -9.8110   -1.2687 H         1 <0>         0.1996
     51 H19         1.6640   10.3656    1.6002 H         1 <0>         0.0980
     52 H20         2.0311   10.6161   -0.1403 H         1 <0>         0.0974
     53 H21        -0.0234   11.2238   -1.4885 H         1 <0>         0.0772
     54 H22        -1.3531   10.0161   -1.4717 H         1 <0>         0.0713
     55 H23         0.3283    9.4958   -1.8308 H         1 <0>         0.0610
@<TRIPOS>BOND
     1    1    2 1
     2    1   34 1
     3    1   35 1
     4    1   36 1
     5    2    3 1
     6    2   37 1
     7    2   38 1
     8    3    4 1
     9    4    9 ar
    10    4    5 ar
    11    5    6 ar
    12    5   39 1
    13    6   32 1
    14    6    7 ar
    15    7    8 ar
    16    7   29 1
    17    8    9 ar
    18    8   40 1
    19    9   10 1
    20   10   11 2
    21   10   41 1
    22   11   12 1
    23   11   42 1
    24   12   13 2
    25   12   14 am
    26   14   15 1
    27   14   43 1
    28   15   20 ar
    29   15   16 ar
    30   16   17 ar
    31   16   44 1
    32   17   18 ar
    33   17   45 1
    34   18   19 ar
    35   18   21 1
    36   19   20 ar
    37   19   46 1
    38   20   47 1
    39   21   22 2
    40   21   23 am
    41   23   24 1
    42   23   48 1
    43   24   28 1
    44   24   25 2
    45   25   26 1
    46   26   27 2
    47   26   49 1
    48   27   28 1
    49   27   50 1
    50   29   30 1
    51   30   31 1
    52   30   32 1
    53   30   33 1
    54   32   51 1
    55   32   52 1
    56   33   53 1
    57   33   54 1
    58   33   55 1
@<TRIPOS>MOLECULE
ZINC39252073
   56    59     0     0     0
SMALL
USER_CHARGES

@<TRIPOS>ATOM
      1 C1          0.6781   -0.3138    1.3329 C.3       1 <0>        -0.1467
      2 C2          0.0569   -0.1398   -0.0545 C.3       1 <0>        -0.0962
      3 C3          0.8610   -0.9442   -1.0779 C.3       1 <0>        -0.1539
      4 C4         -1.3882   -0.6419   -0.0329 C.3       1 <0>        -0.0881
      5 C5         -2.0504   -0.3483   -1.3805 C.3       1 <0>         0.0542
      6 H1         -1.5167   -0.8361   -2.1962 H         1 <0>         0.1501
      7 N1         -3.4825   -0.7249   -1.3714 N.2       1 <0>        -0.1206
      8 N2         -4.3298    0.0480   -1.7736 N.2       1 <0>        -0.1425
      9 C6         -3.9518    1.3861   -2.2830 C.3       1 <0>         0.2849
     10 H2         -3.9923    1.4225   -3.3716 H         1 <0>         0.1560
     11 S1         -2.2079    1.4706   -1.6714 S.3       1 <0>        -0.3139
     12 N3         -4.7796    2.4376   -1.6869 N.am      1 <0>        -0.7010
     13 C7         -6.0446    2.6224   -2.1136 C.2       1 <0>         0.5379
     14 O1         -6.4976    1.9183   -2.9911 O.2       1 <0>        -0.5074
     15 C8         -6.8962    3.7040   -1.5004 C.3       1 <0>        -0.1214
     16 H3         -6.4353    4.6828   -1.6331 H         1 <0>         0.1249
     17 C9         -7.1638    3.4165   -0.0049 C.3       1 <0>        -0.1473
     18 C10        -8.5875    3.8792    0.2129 C.2       1 <0>         0.5202
     19 O2         -9.0917    4.0892    1.2958 O.2       1 <0>        -0.5195
     20 N4         -9.2123    4.0242   -0.9683 N.am      1 <0>        -0.6185
     21 C11        -8.3252    3.6817   -2.0870 C.3       1 <0>         0.1178
     22 C12       -10.6002    4.4679   -1.1204 C.3       1 <0>         0.1315
     23 C13       -10.6379    5.9926   -1.2414 C.3       1 <0>        -0.0591
     24 C14       -12.0656    6.4490   -1.3978 C.2       1 <0>        -0.1670
     25 C15       -13.0217    6.7054   -0.3179 C.ar      1 <0>        -0.0914
     26 C16       -12.9557    6.6271    1.0745 C.ar      1 <0>        -0.0574
     27 C17       -14.0640    6.9455    1.8279 C.ar      1 <0>        -0.0592
     28 C18       -15.2429    7.3422    1.2096 C.ar      1 <0>        -0.0891
     29 C19       -15.3231    7.4241   -0.1632 C.ar      1 <0>        -0.1174
     30 C20       -14.2160    7.1077   -0.9431 C.ar      1 <0>         0.0993
     31 N5        -13.9881    7.0923   -2.3016 N.pl3     1 <0>        -0.5924
     32 C21       -12.7006    6.7032   -2.5528 C.2       1 <0>         0.0632
     33 Cl1       -13.9872    6.8499    3.5596 Cl        1 <0>        -0.0708
     34 H4          1.7134    0.0266    1.3127 H         1 <0>         0.0601
     35 H5          0.1164    0.2741    2.0588 H         1 <0>         0.0573
     36 H6          0.6471   -1.3661    1.6155 H         1 <0>         0.0591
     37 H7          0.0710    0.9149   -0.3292 H         1 <0>         0.0757
     38 H8          0.8469   -1.9989   -0.8031 H         1 <0>         0.0611
     39 H9          0.4185   -0.8202   -2.0662 H         1 <0>         0.0530
     40 H10         1.8905   -0.5865   -1.0933 H         1 <0>         0.0609
     41 H11        -1.3968   -1.7164    0.1498 H         1 <0>         0.0981
     42 H12        -1.9374   -0.1342    0.7601 H         1 <0>         0.0819
     43 H13        -4.4173    3.0007   -0.9851 H         1 <0>         0.4158
     44 H14        -7.0737    2.3498    0.2006 H         1 <0>         0.1108
     45 H15        -6.4775    3.9860    0.6218 H         1 <0>         0.1126
     46 H16        -8.4178    4.4208   -2.8827 H         1 <0>         0.0886
     47 H17        -8.5621    2.6873   -2.4653 H         1 <0>         0.0942
     48 H18       -11.0281    4.0215   -2.0181 H         1 <0>         0.0821
     49 H19       -11.1782    4.1581   -0.2497 H         1 <0>         0.0861
     50 H20       -10.2101    6.4390   -0.3437 H         1 <0>         0.0757
     51 H21       -10.0600    6.3024   -2.1121 H         1 <0>         0.0739
     52 H22       -12.0408    6.3184    1.5582 H         1 <0>         0.1350
     53 H23       -16.1054    7.5886    1.8111 H         1 <0>         0.1366
     54 H24       -16.2446    7.7340   -0.6333 H         1 <0>         0.1298
     55 H25       -12.2610    6.6117   -3.5351 H         1 <0>         0.1733
     56 H26       -14.6418    7.3259   -2.9791 H         1 <0>         0.4191
@<TRIPOS>BOND
     1    1    2 1
     2    1   34 1
     3    1   35 1
     4    1   36 1
     5    2    3 1
     6    2    4 1
     7    2   37 1
     8    3   38 1
     9    3   39 1
    10    3   40 1
    11    4    5 1
    12    4   41 1
    13    4   42 1
    14    5    6 1
    15    5   11 1
    16    5    7 1
    17    7    8 2
    18    8    9 1
    19    9   10 1
    20    9   11 1
    21    9   12 1
    22   12   13 am
    23   12   43 1
    24   13   14 2
    25   13   15 1
    26   15   16 1
    27   15   21 1
    28   15   17 1
    29   17   18 1
    30   17   44 1
    31   17   45 1
    32   18   19 2
    33   18   20 am
    34   20   21 1
    35   20   22 1
    36   21   46 1
    37   21   47 1
    38   22   23 1
    39   22   48 1
    40   22   49 1
    41   23   50 1
    42   23   51 1
    43   23   24 1
    44   24   25 1
    45   24   32 2
    46   25   26 ar
    47   25   30 ar
    48   26   27 ar
    49   26   52 1
    50   27   28 ar
    51   27   33 1
    52   28   29 ar
    53   28   53 1
    54   29   30 ar
    55   29   54 1
    56   30   31 1
    57   31   56 1
    58   31   32 1
    59   32   55 1
@<TRIPOS>MOLECULE
ZINC58326546
   57    59     0     0     0
SMALL
USER_CHARGES

@<TRIPOS>ATOM
      1 C1         -3.4441   -0.3745   -0.5742 C.3       1 <0>        -0.1489
      2 C2         -2.7417   -1.7194   -0.3774 C.3       1 <0>        -0.0089
      3 C3         -2.0854   -2.1490   -1.6910 C.3       1 <0>        -0.1481
      4 C4         -1.6869   -1.5837    0.6903 C.2       1 <0>         0.0677
      5 N1         -1.5896   -2.2307    1.8248 N.2       1 <0>        -0.5145
      6 C5         -0.5995   -1.9994    2.6637 C.2       1 <0>         0.0671
      7 C6          0.3113   -1.0618    2.2969 C.2       1 <0>        -0.2291
      8 S1         -0.3441   -0.5691    0.7106 S.3       1 <0>         0.1103
      9 C7         -0.4842   -2.7413    3.9703 C.3       1 <0>        -0.0562
     10 C8         -1.1250   -1.9128    5.0855 C.3       1 <0>         0.1453
     11 N2         -1.0129   -2.6341    6.3557 N.am      1 <0>        -0.7392
     12 C9         -1.5114   -2.0923    7.4846 C.2       1 <0>         0.7017
     13 O1         -2.0543   -1.0049    7.4488 O.2       1 <0>        -0.5641
     14 N3         -1.4082   -2.7559    8.6532 N.am      1 <0>        -0.6737
     15 C10        -1.8195   -2.1436    9.8458 C.ar      1 <0>         0.1518
     16 C11        -1.8401   -0.7657    9.9441 C.ar      1 <0>        -0.0634
     17 C12        -2.2513   -0.1589   11.1350 C.ar      1 <0>        -0.1102
     18 C13        -2.6399   -0.9485   12.2215 C.ar      1 <0>        -0.0750
     19 C14        -2.6173   -2.3215   12.1190 C.ar      1 <0>        -0.1167
     20 C15        -2.2143   -2.9267   10.9339 C.ar      1 <0>         0.1924
     21 N4         -2.1989   -4.3152   10.8328 N.pl3     1 <0>        -0.6878
     22 C16        -1.0648   -5.1867   11.1736 C.3       1 <0>         0.1297
     23 C17        -1.4976   -6.6383   10.8785 C.3       1 <0>        -0.1317
     24 C18        -2.6499   -6.4562    9.8555 C.3       1 <0>        -0.1337
     25 C19        -3.3192   -5.1557   10.3724 C.3       1 <0>         0.1304
     26 C20        -2.2746    1.3107   11.2449 C.2       1 <0>         0.5075
     27 O2         -1.9363    1.9960   10.3001 O.2       1 <0>        -0.4967
     28 O3         -2.6711    1.8943   12.3930 O.3       1 <0>        -0.3501
     29 C21        -2.6689    3.3229   12.4290 C.3       1 <0>         0.0343
     30 H1         -2.7141    0.3757   -0.8780 H         1 <0>         0.0612
     31 H2         -4.2071   -0.4727   -1.3465 H         1 <0>         0.0738
     32 H3         -3.9117   -0.0685    0.3616 H         1 <0>         0.0622
     33 H4         -3.4717   -2.4696   -0.0736 H         1 <0>         0.1036
     34 H5         -1.3553   -1.3988   -1.9948 H         1 <0>         0.0610
     35 H6         -1.5849   -3.1072   -1.5508 H         1 <0>         0.0614
     36 H7         -2.8483   -2.2472   -2.4633 H         1 <0>         0.0738
     37 H8          1.1905   -0.7133    2.8183 H         1 <0>         0.1965
     38 H9         -0.9961   -3.7003    3.8900 H         1 <0>         0.0884
     39 H10         0.5678   -2.9093    4.2011 H         1 <0>         0.0878
     40 H11        -0.6130   -0.9539    5.1658 H         1 <0>         0.0719
     41 H12        -2.1770   -1.7449    4.8547 H         1 <0>         0.0723
     42 H13        -0.5798   -3.5016    6.3843 H         1 <0>         0.3981
     43 H14        -1.0495   -3.6570    8.6692 H         1 <0>         0.4094
     44 H15        -1.5390   -0.1586    9.1032 H         1 <0>         0.1647
     45 H16        -2.9578   -0.4813   13.1419 H         1 <0>         0.1411
     46 H17        -2.9175   -2.9295   12.9596 H         1 <0>         0.1363
     47 H18        -0.2005   -4.9261   10.5628 H         1 <0>         0.0469
     48 H19        -0.8202   -5.0804   12.2304 H         1 <0>         0.0533
     49 H20        -0.6764   -7.2035   10.4378 H         1 <0>         0.0785
     50 H21        -1.8594   -7.1246   11.7844 H         1 <0>         0.0751
     51 H22        -2.2594   -6.3243    8.8465 H         1 <0>         0.0712
     52 H23        -3.3453   -7.2945    9.8971 H         1 <0>         0.0804
     53 H24        -3.9932   -5.3762   11.2001 H         1 <0>         0.0532
     54 H25        -3.8582   -4.6602    9.5649 H         1 <0>         0.0601
     55 H26        -3.0084    3.6622   13.4077 H         1 <0>         0.1040
     56 H27        -1.6584    3.6893   12.2479 H         1 <0>         0.0615
     57 H28        -3.3381    3.7068   11.6591 H         1 <0>         0.0618
@<TRIPOS>BOND
     1    1    2 1
     2    1   30 1
     3    1   31 1
     4    1   32 1
     5    2    3 1
     6    2    4 1
     7    2   33 1
     8    3   34 1
     9    3   35 1
    10    3   36 1
    11    4    8 1
    12    4    5 2
    13    5    6 1
    14    6    7 2
    15    6    9 1
    16    7    8 1
    17    7   37 1
    18    9   10 1
    19    9   38 1
    20    9   39 1
    21   10   11 1
    22   10   40 1
    23   10   41 1
    24   11   12 am
    25   11   42 1
    26   12   13 2
    27   12   14 am
    28   14   15 1
    29   14   43 1
    30   15   20 ar
    31   15   16 ar
    32   16   17 ar
    33   16   44 1
    34   17   18 ar
    35   17   26 1
    36   18   19 ar
    37   18   45 1
    38   19   20 ar
    39   19   46 1
    40   20   21 1
    41   21   25 1
    42   21   22 1
    43   22   23 1
    44   22   47 1
    45   22   48 1
    46   23   24 1
    47   23   49 1
    48   23   50 1
    49   24   25 1
    50   24   51 1
    51   24   52 1
    52   25   53 1
    53   25   54 1
    54   26   27 2
    55   26   28 1
    56   28   29 1
    57   29   55 1
    58   29   56 1
    59   29   57 1
@<TRIPOS>MOLECULE
ZINC05102578
   44    47     0     0     0
SMALL
USER_CHARGES
6-[[4-chloro-3-(2-thienylcarbonylamino)phenyl]carbamoyl]bicyclo[2.2.1]hept-2-ene-5-carboxylic acid
@<TRIPOS>ATOM
      1 C1          1.7349   -5.8124   -2.9742 C.2       1 <0>        -0.1743
      2 C2          2.2117   -4.6922   -2.3401 C.2       1 <0>        -0.0680
      3 C3          1.2925   -3.7007   -2.0339 C.2       1 <0>        -0.2313
      4 S1         -0.2250   -4.4033   -2.6556 S.3       1 <0>         0.1366
      5 C4          0.4105   -5.8961   -3.2666 C.2       1 <0>        -0.1847
      6 C5          1.5096   -2.4137   -1.3675 C.2       1 <0>         0.6008
      7 O1          2.6269   -2.0987   -1.0015 O.2       1 <0>        -0.4867
      8 N1          0.4721   -1.5788   -1.1599 N.am      1 <0>        -0.6576
      9 C6          0.6956   -0.3038   -0.6295 C.ar      1 <0>         0.1754
     10 C7          1.9626    0.2594   -0.6849 C.ar      1 <0>        -0.1448
     11 C8          2.1804    1.5239   -0.1574 C.ar      1 <0>         0.2074
     12 C9          1.1304    2.2229    0.4247 C.ar      1 <0>        -0.1331
     13 C10        -0.1303    1.6604    0.4788 C.ar      1 <0>        -0.0724
     14 C11        -0.3512    0.4005   -0.0458 C.ar      1 <0>        -0.0947
     15 Cl1        -1.9368   -0.3028    0.0249 Cl        1 <0>        -0.0831
     16 N2          3.4572    2.0948   -0.2112 N.am      1 <0>        -0.6642
     17 C12         3.5946    3.4218   -0.4025 C.2       1 <0>         0.5474
     18 O2          2.6133    4.1335   -0.4427 O.2       1 <0>        -0.5108
     19 C13         4.9674    4.0213   -0.5666 C.3       1 <0>        -0.0979
     20 H1          5.6049    3.7524    0.2756 H         1 <0>         0.0892
     21 C14         4.8749    5.5738   -0.7115 C.3       1 <0>        -0.0498
     22 H2          4.7222    6.1364    0.2095 H         1 <0>         0.0950
     23 C15         6.2018    5.8645   -1.5037 C.3       1 <0>        -0.1213
     24 C16         5.8154    4.9013   -2.6851 C.3       1 <0>        -0.0648
     25 H3          6.4967    4.8728   -3.5355 H         1 <0>         0.0923
     26 C17         5.6041    3.5661   -1.9026 C.3       1 <0>        -0.1283
     27 H4          6.5588    3.0718   -1.7233 H         1 <0>         0.0771
     28 C18         4.6669    2.6550   -2.6527 C.2       1 <0>         0.4621
     29 O3          3.5927    3.0657   -3.0232 O.co2     1 <0>        -0.6062
     30 C19         4.3920    5.3958   -2.9702 C.2       1 <0>        -0.1196
     31 C20         3.8501    5.7834   -1.8330 C.2       1 <0>        -0.1613
     32 H5          2.4045   -6.6176   -3.2379 H         1 <0>         0.1417
     33 H6          3.2573   -4.5877   -2.0910 H         1 <0>         0.1518
     34 H7         -0.1187   -6.6995   -3.7573 H         1 <0>         0.1906
     35 H8         -0.4295   -1.8620   -1.3783 H         1 <0>         0.4099
     36 H9          2.7775   -0.2855   -1.1382 H         1 <0>         0.1719
     37 H10         1.2997    3.2074    0.8351 H         1 <0>         0.1466
     38 H11        -0.9459    2.2078    0.9278 H         1 <0>         0.1360
     39 H12         4.2433    1.5353   -0.1108 H         1 <0>         0.4128
     40 H13         6.2793    6.9044   -1.8211 H         1 <0>         0.0731
     41 H14         7.0901    5.5315   -0.9669 H         1 <0>         0.0690
     42 H15         3.9146    5.4221   -3.9386 H         1 <0>         0.1145
     43 H16         2.8531    6.1805   -1.7115 H         1 <0>         0.1183
     44 O4          5.0256    1.3872   -2.9093 O.co2     1 <0>        -0.7649
@<TRIPOS>BOND
     1    1    5 2
     2    1    2 1
     3    1   32 1
     4    2    3 2
     5    2   33 1
     6    3    4 1
     7    3    6 1
     8    4    5 1
     9    5   34 1
    10    6    7 2
    11    6    8 am
    12    8    9 1
    13    8   35 1
    14    9   14 ar
    15    9   10 ar
    16   10   11 ar
    17   10   36 1
    18   11   12 ar
    19   11   16 1
    20   12   13 ar
    21   12   37 1
    22   13   14 ar
    23   13   38 1
    24   14   15 1
    25   16   17 am
    26   16   39 1
    27   17   18 2
    28   17   19 1
    29   19   20 1
    30   19   26 1
    31   19   21 1
    32   21   22 1
    33   21   31 1
    34   21   23 1
    35   23   24 1
    36   23   40 1
    37   23   41 1
    38   24   25 1
    39   24   26 1
    40   24   30 1
    41   26   27 1
    42   26   28 1
    43   28   29 2
    44   28   44 1
    45   30   31 2
    46   30   42 1
    47   31   43 1
@<TRIPOS>MOLECULE
ZINC15082783
   48    51     0     0     0
SMALL
USER_CHARGES
(7R)-3-(4-fluorophenyl)-7-(4-hydroxy-3,5-dimethoxy-phenyl)-5-oxo-6,7-dihydro-4H-thieno[4,5-b]pyridine-2-carboxylic acid
@<TRIPOS>ATOM
      1 C1         -0.0173    1.4248    0.0099 C.3       1 <0>         0.0241
      2 O1          0.0021   -0.0041    0.0020 O.3       1 <0>        -0.3042
      3 C2          0.6062   -0.6075   -1.0565 C.ar      1 <0>         0.1427
      4 C3          1.1681    0.1600   -2.0654 C.ar      1 <0>        -0.2194
      5 C4          1.7823   -0.4524   -3.1417 C.ar      1 <0>        -0.0063
      6 C5          1.8392   -1.8314   -3.2170 C.ar      1 <0>        -0.2160
      7 C6          1.2798   -2.6062   -2.2122 C.ar      1 <0>         0.1457
      8 C7          0.6663   -1.9943   -1.1255 C.ar      1 <0>         0.0379
      9 O2          0.1214   -2.7511   -0.1343 O.3       1 <0>        -0.4740
     10 O3          1.3367   -3.9629   -2.2869 O.3       1 <0>        -0.3029
     11 C8          1.9880   -4.5230   -3.4289 C.3       1 <0>         0.0242
     12 C9          2.3920    0.3857   -4.2357 C.3       1 <0>         0.0499
     13 H1          2.2535    1.4429   -4.0093 H         1 <0>         0.1095
     14 C10         3.8895    0.0736   -4.3530 C.3       1 <0>        -0.1254
     15 C11         4.1032   -1.2322   -5.0645 C.2       1 <0>         0.5246
     16 O4          4.9942   -1.9610   -4.6816 O.2       1 <0>        -0.5387
     17 N1          3.3528   -1.6294   -6.1060 N.am      1 <0>        -0.6503
     18 C12         2.1812   -0.8876   -6.4314 C.2       1 <0>         0.1308
     19 C13         1.7409    0.0600   -5.5435 C.2       1 <0>        -0.2810
     20 S1          0.3380    0.7368   -6.2656 S.3       1 <0>         0.2179
     21 C14         0.3030   -0.2475   -7.7548 C.2       1 <0>        -0.1092
     22 C15         1.4267   -1.0632   -7.5898 C.2       1 <0>        -0.1027
     23 C16         1.8003   -2.0732   -8.6059 C.ar      1 <0>        -0.0139
     24 C17         2.9911   -1.9397   -9.3205 C.ar      1 <0>        -0.0837
     25 C18         3.3378   -2.8869  -10.2613 C.ar      1 <0>        -0.1576
     26 C19         2.4996   -3.9629  -10.5063 C.ar      1 <0>         0.0915
     27 C20         1.3127   -4.0967   -9.8034 C.ar      1 <0>        -0.1513
     28 C21         0.9601   -3.1585   -8.8559 C.ar      1 <0>        -0.0332
     29 F1          2.8407   -4.8848  -11.4331 F         1 <0>        -0.1467
     30 C22        -0.6234   -0.2109   -8.8269 C.2       1 <0>         0.5122
     31 O5         -0.4892   -0.9644   -9.7729 O.co2     1 <0>        -0.5949
     32 H2          1.0053    1.8021    0.0021 H         1 <0>         0.0572
     33 H3         -0.5445    1.7859   -0.8732 H         1 <0>         0.0595
     34 H4         -0.5275    1.7763    0.9067 H         1 <0>         0.1009
     35 H5          1.1260    1.2378   -2.0101 H         1 <0>         0.1377
     36 H6          2.3197   -2.3062   -4.0597 H         1 <0>         0.1347
     37 H7         -0.8063   -2.9816   -0.2803 H         1 <0>         0.3805
     38 H8          1.9632   -5.6108   -3.3642 H         1 <0>         0.1031
     39 H9          1.4740   -4.2011   -4.3346 H         1 <0>         0.0572
     40 H10         3.0236   -4.1843   -3.4590 H         1 <0>         0.0589
     41 H11         4.3802    0.8712   -4.9107 H         1 <0>         0.1108
     42 H12         4.3233    0.0135   -3.3549 H         1 <0>         0.1118
     43 H13         3.6044   -2.4080   -6.6269 H         1 <0>         0.4107
     44 H14         3.6427   -1.0990   -9.1337 H         1 <0>         0.1259
     45 H15         4.2619   -2.7872  -10.8114 H         1 <0>         0.1306
     46 H16         0.6630   -4.9373   -9.9977 H         1 <0>         0.1320
     47 H17         0.0353   -3.2641   -8.3082 H         1 <0>         0.1278
     48 O6         -1.6544    0.6596   -8.7985 O.co2     1 <0>        -0.7392
@<TRIPOS>BOND
     1    1    2 1
     2    1   32 1
     3    1   33 1
     4    1   34 1
     5    2    3 1
     6    3    8 ar
     7    3    4 ar
     8    4    5 ar
     9    4   35 1
    10    5    6 ar
    11    5   12 1
    12    6    7 ar
    13    6   36 1
    14    7    8 ar
    15    7   10 1
    16    8    9 1
    17    9   37 1
    18   10   11 1
    19   11   38 1
    20   11   39 1
    21   11   40 1
    22   12   13 1
    23   12   19 1
    24   12   14 1
    25   14   15 1
    26   14   41 1
    27   14   42 1
    28   15   16 2
    29   15   17 am
    30   17   18 1
    31   17   43 1
    32   18   22 1
    33   18   19 2
    34   19   20 1
    35   20   21 1
    36   21   22 2
    37   21   30 1
    38   22   23 1
    39   23   28 ar
    40   23   24 ar
    41   24   25 ar
    42   24   44 1
    43   25   26 ar
    44   25   45 1
    45   26   27 ar
    46   26   29 1
    47   27   28 ar
    48   27   46 1
    49   28   47 1
    50   30   31 2
    51   30   48 1
@<TRIPOS>MOLECULE
ZINC06213887
   52    54     0     0     0
SMALL
USER_CHARGES
1-cyclohexyl-3-[4-[(2,6-dimethylpyrimidin-4-yl)sulfamoyl]phenyl]thiourea
@<TRIPOS>ATOM
      1 C1          3.4014    3.2292    0.7120 C.3       1 <0>        -0.0938
      2 C2          2.2327    2.2870    0.5792 C.ar      1 <0>         0.1670
      3 C3          0.9488    2.7797    0.4505 C.ar      1 <0>        -0.2682
      4 C4         -0.1018    1.8680    0.3304 C.ar      1 <0>         0.4564
      5 N1          0.1709    0.5664    0.3439 N.ar      1 <0>        -0.6103
      6 C5          1.4115    0.1407    0.4684 C.ar      1 <0>         0.3430
      7 N2          2.4246    0.9755    0.5841 N.ar      1 <0>        -0.5930
      8 C6          1.6794   -1.3423    0.4793 C.3       1 <0>        -0.0803
      9 N3         -1.4070    2.3123    0.1936 N.2       1 <0>        -1.0278
     10 S1         -2.6423    1.2195    0.0452 S.o2      1 <0>         2.6144
     11 O1         -3.8428    1.9739   -0.0490 O.2       1 <0>        -0.9980
     12 O2         -2.2454    0.2912   -0.9548 O.2       1 <0>        -1.0133
     13 C7         -2.7289    0.3223    1.5592 C.ar      1 <0>        -0.6466
     14 C8         -1.9986   -0.8417    1.7142 C.ar      1 <0>         0.0038
     15 C9         -2.0606   -1.5447    2.9014 C.ar      1 <0>        -0.1581
     16 C10        -2.8656   -1.0870    3.9364 C.ar      1 <0>         0.1602
     17 C11        -3.6018    0.0796    3.7757 C.ar      1 <0>        -0.1052
     18 C12        -3.5314    0.7807    2.5879 C.ar      1 <0>        -0.0211
     19 N4         -2.9350   -1.7997    5.1381 N.pl3     1 <0>        -0.6430
     20 C13        -4.1224   -1.9710    5.7524 C.2       1 <0>         0.5638
     21 S2         -5.5628   -1.4411    4.9939 S.2       1 <0>        -0.6263
     22 N5         -4.1758   -2.5595    6.9637 N.pl3     1 <0>        -0.6933
     23 C14        -5.4664   -2.7457    7.6314 C.3       1 <0>         0.1465
     24 C15        -5.8333   -1.4724    8.3963 C.3       1 <0>        -0.1278
     25 C16        -7.1812   -1.6669    9.0936 C.3       1 <0>        -0.1155
     26 C17        -7.0850   -2.8396   10.0716 C.3       1 <0>        -0.1227
     27 C18        -6.7181   -4.1128    9.3066 C.3       1 <0>        -0.1150
     28 C19        -5.3702   -3.9184    8.6093 C.3       1 <0>        -0.1250
     29 H1          3.0398    4.2678    0.6863 H         1 <0>         0.0688
     30 H2          4.1019    3.0641   -0.1199 H         1 <0>         0.0707
     31 H3          3.9155    3.0435    1.6666 H         1 <0>         0.0696
     32 H4          0.7623    3.8434    0.4433 H         1 <0>         0.1271
     33 H5          2.7595   -1.5190    0.5899 H         1 <0>         0.0738
     34 H6          1.3303   -1.7849   -0.4653 H         1 <0>         0.0780
     35 H7          1.1440   -1.8054    1.3212 H         1 <0>         0.0717
     36 H8         -1.3760   -1.1993    0.9074 H         1 <0>         0.1505
     37 H9         -1.4868   -2.4515    3.0233 H         1 <0>         0.1208
     38 H10        -4.2285    0.4383    4.5788 H         1 <0>         0.1387
     39 H11        -4.1034    1.6882    2.4624 H         1 <0>         0.1352
     40 H12        -2.0205   -2.2203    5.5817 H         1 <0>         0.4252
     41 H13        -3.2503   -2.9000    7.4510 H         1 <0>         0.4130
     42 H14        -6.2097   -2.9547    6.8479 H         1 <0>         0.1166
     43 H15        -5.0588   -1.2602    9.1480 H         1 <0>         0.0578
     44 H16        -5.9025   -0.6293    7.6931 H         1 <0>         0.0816
     45 H17        -7.4450   -0.7515    9.6436 H         1 <0>         0.0656
     46 H18        -7.9557   -1.8790    8.3418 H         1 <0>         0.0696
     47 H19        -6.3105   -2.6275   10.8234 H         1 <0>         0.0607
     48 H20        -8.0541   -2.9794   10.5729 H         1 <0>         0.0642
     49 H21        -6.6489   -4.9559   10.0097 H         1 <0>         0.0670
     50 H22        -7.4926   -4.3249    8.5548 H         1 <0>         0.0687
     51 H23        -5.1065   -4.8338    8.0593 H         1 <0>         0.0683
     52 H24        -4.5957   -3.7064    9.3610 H         1 <0>         0.0663
@<TRIPOS>BOND
     1    1    2 1
     2    1   29 1
     3    1   30 1
     4    1   31 1
     5    2    7 ar
     6    2    3 ar
     7    3    4 ar
     8    3   32 1
     9    4    5 ar
    10    4    9 1
    11    5    6 ar
    12    6    7 ar
    13    6    8 1
    14    8   33 1
    15    8   34 1
    16    8   35 1
    17    9   10 1
    18   10   11 2
    19   10   12 2
    20   10   13 1
    21   13   18 ar
    22   13   14 ar
    23   14   15 ar
    24   14   36 1
    25   15   16 ar
    26   15   37 1
    27   16   17 ar
    28   16   19 1
    29   17   18 ar
    30   17   38 1
    31   18   39 1
    32   19   20 1
    33   19   40 1
    34   20   21 2
    35   20   22 1
    36   22   23 1
    37   22   41 1
    38   23   28 1
    39   23   24 1
    40   23   42 1
    41   24   25 1
    42   24   43 1
    43   24   44 1
    44   25   26 1
    45   25   45 1
    46   25   46 1
    47   26   27 1
    48   26   47 1
    49   26   48 1
    50   27   28 1
    51   27   49 1
    52   27   50 1
    53   28   51 1
    54   28   52 1
@<TRIPOS>MOLECULE
ZINC47383576
   42    44     0     0     0
SMALL
USER_CHARGES

@<TRIPOS>ATOM
      1 C1         -1.2998    2.3191    0.6836 C.3       1 <0>        -0.1641
      2 C2         -0.6491    0.9980    0.2685 C.3       1 <0>         0.1568
      3 C3          0.3662    0.5735    1.3315 C.3       1 <0>        -0.1590
      4 N1         -1.6802   -0.0345    0.1380 N.am      1 <0>        -0.7480
      5 C4         -2.3667   -0.1594   -1.0150 C.2       1 <0>         0.6982
      6 O1         -2.1302    0.5849   -1.9470 O.2       1 <0>        -0.5903
      7 N2         -3.3153   -1.1092   -1.1351 N.am      1 <0>        -0.6516
      8 C5         -4.0935   -1.1796   -2.2992 C.ar      1 <0>         0.0874
      9 C6         -3.5364   -0.8611   -3.5282 C.ar      1 <0>        -0.0772
     10 C7         -4.3055   -0.9311   -4.6749 C.ar      1 <0>        -0.2100
     11 C8         -5.6309   -1.3179   -4.6007 C.ar      1 <0>        -0.0773
     12 C9         -6.1947   -1.6368   -3.3796 C.ar      1 <0>        -0.2551
     13 C10        -5.4285   -1.5757   -2.2249 C.ar      1 <0>         0.2668
     14 N3         -5.9951   -1.9045   -0.9885 N.2       1 <0>        -1.0859
     15 S1         -7.5807   -2.3746   -0.9031 S.o2      1 <0>         2.6074
     16 O2         -8.3597   -1.2441   -1.2696 O.2       1 <0>        -1.0280
     17 O3         -7.6732   -3.6173   -1.5861 O.2       1 <0>        -1.0125
     18 C11        -7.9361   -2.7033    0.7910 C.ar      1 <0>        -0.5675
     19 C12        -8.8354   -1.9386    1.4534 C.ar      1 <0>         0.0057
     20 C13        -9.1418   -2.1702    2.7944 C.ar      1 <0>        -0.1100
     21 C14        -8.5527   -3.1695    3.4920 C.ar      1 <0>        -0.0374
     22 C15        -7.5983   -4.0130    2.8617 C.ar      1 <0>         0.0557
     23 C16        -7.2823   -3.7746    1.4579 C.ar      1 <0>         0.1323
     24 N4         -6.3804   -4.6280    0.9712 N.2       1 <0>        -0.4610
     25 S2         -6.0086   -5.6093    2.1907 S.3       1 <0>         0.6114
     26 N5         -6.9226   -5.0371    3.3847 N.2       1 <0>        -0.5085
     27 H1         -0.5327    3.0873    0.7807 H         1 <0>         0.0595
     28 H2         -2.0231    2.6215   -0.0736 H         1 <0>         0.0633
     29 H3         -1.8073    2.1895    1.6396 H         1 <0>         0.0529
     30 H4         -0.1416    1.1276   -0.6874 H         1 <0>         0.0862
     31 H5         -0.1413    0.4439    2.2874 H         1 <0>         0.0581
     32 H6          0.8298   -0.3677    1.0357 H         1 <0>         0.0598
     33 H7          1.1333    1.3417    1.4285 H         1 <0>         0.0691
     34 H8         -1.8688   -0.6282    0.8815 H         1 <0>         0.3925
     35 H9         -3.4596   -1.7441   -0.4161 H         1 <0>         0.4059
     36 H10        -2.5016   -0.5579   -3.5898 H         1 <0>         0.1254
     37 H11        -3.8698   -0.6827   -5.6314 H         1 <0>         0.1039
     38 H12        -6.2275   -1.3707   -5.4994 H         1 <0>         0.1017
     39 H13        -7.2305   -1.9379   -3.3251 H         1 <0>         0.0984
     40 H14        -9.3267   -1.1306    0.9318 H         1 <0>         0.1555
     41 H15        -9.8651   -1.5376    3.2873 H         1 <0>         0.1456
     42 H16        -8.8082   -3.3258    4.5296 H         1 <0>         0.1438
@<TRIPOS>BOND
     1    1    2 1
     2    1   27 1
     3    1   28 1
     4    1   29 1
     5    2    3 1
     6    2    4 1
     7    2   30 1
     8    3   31 1
     9    3   32 1
    10    3   33 1
    11    4    5 am
    12    4   34 1
    13    5    6 2
    14    5    7 am
    15    7    8 1
    16    7   35 1
    17    8   13 ar
    18    8    9 ar
    19    9   10 ar
    20    9   36 1
    21   10   11 ar
    22   10   37 1
    23   11   12 ar
    24   11   38 1
    25   12   13 ar
    26   12   39 1
    27   13   14 1
    28   14   15 1
    29   15   16 2
    30   15   17 2
    31   15   18 1
    32   18   23 ar
    33   18   19 ar
    34   19   20 ar
    35   19   40 1
    36   20   21 ar
    37   20   41 1
    38   21   22 ar
    39   21   42 1
    40   22   26 2
    41   22   23 ar
    42   23   24 2
    43   24   25 1
    44   25   26 1
@<TRIPOS>MOLECULE
ZINC59266208
   47    49     0     0     0
SMALL
USER_CHARGES

@<TRIPOS>ATOM
      1 C1          3.7497    0.4612   -0.6499 C.3       1 <0>        -0.1124
      2 C2          2.9630   -0.8168   -0.5131 C.ar      1 <0>        -0.1047
      3 C3          3.4880   -1.8768    0.2032 C.ar      1 <0>        -0.0992
      4 C4          2.7695   -3.0494    0.3304 C.ar      1 <0>        -0.1154
      5 C5          1.5186   -3.1633   -0.2619 C.ar      1 <0>         0.1591
      6 C6          0.9942   -2.0970   -0.9805 C.ar      1 <0>        -0.1432
      7 C7          1.7153   -0.9251   -1.0993 C.ar      1 <0>        -0.1014
      8 N1          0.7883   -4.3503   -0.1352 N.am      1 <0>        -0.6826
      9 C8          0.8865   -5.0850    0.9904 C.2       1 <0>         0.7024
     10 O1          1.5345   -4.6709    1.9322 O.2       1 <0>        -0.5472
     11 N2          0.2664   -6.2789    1.0721 N.am      1 <0>        -0.6801
     12 C9          0.2773   -6.9921    2.2760 C.ar      1 <0>         0.1967
     13 C10         0.2666   -6.3129    3.4872 C.ar      1 <0>        -0.1436
     14 C11         0.2775   -7.0197    4.6737 C.ar      1 <0>        -0.0006
     15 C12         0.2990   -8.4023    4.6564 C.ar      1 <0>        -0.6314
     16 C13         0.3102   -9.0815    3.4520 C.ar      1 <0>        -0.0010
     17 C14         0.2932   -8.3806    2.2620 C.ar      1 <0>        -0.1693
     18 S1          0.3128   -9.3003    6.1723 S.o2      1 <0>         2.6110
     19 O2          0.8835  -10.5700    5.8870 O.2       1 <0>        -1.0168
     20 O3          0.8500   -8.4274    7.1566 O.2       1 <0>        -1.0158
     21 N3         -1.2651   -9.5745    6.5934 N.2       1 <0>        -1.0227
     22 C15        -1.5608  -10.2664    7.7532 C.2       1 <0>         0.3959
     23 C16        -2.8047  -10.5646    8.2130 C.2       1 <0>        -0.3706
     24 C17        -2.6650  -11.2725    9.4139 C.2       1 <0>         0.1191
     25 N4         -1.3912  -11.3967    9.6690 N.2       1 <0>        -0.3854
     26 O4         -0.6698  -10.7692    8.6244 O.3       1 <0>        -0.1667
     27 C18        -3.7916  -11.7994   10.2649 C.3       1 <0>        -0.0730
     28 C19        -4.1062  -10.1974    7.5478 C.3       1 <0>        -0.0339
     29 H1          3.5046    1.1289    0.1760 H         1 <0>         0.0692
     30 H2          4.8159    0.2355   -0.6305 H         1 <0>         0.0653
     31 H3          3.4976    0.9437   -1.5942 H         1 <0>         0.0644
     32 H4          4.4610   -1.7877    0.6632 H         1 <0>         0.1253
     33 H5          3.1802   -3.8771    0.8896 H         1 <0>         0.1372
     34 H6          0.0218   -2.1827   -1.4426 H         1 <0>         0.1249
     35 H7          1.3061   -0.0939   -1.6543 H         1 <0>         0.1251
     36 H8          0.2114   -4.6442   -0.8575 H         1 <0>         0.4079
     37 H9         -0.1875   -6.6437    0.2963 H         1 <0>         0.4090
     38 H10         0.2501   -5.2331    3.5013 H         1 <0>         0.1402
     39 H11         0.2695   -6.4921    5.6160 H         1 <0>         0.1416
     40 H12         0.3274  -10.1614    3.4418 H         1 <0>         0.1428
     41 H13         0.2967   -8.9118    1.3217 H         1 <0>         0.1306
     42 H14        -4.0451  -12.8106    9.9467 H         1 <0>         0.0754
     43 H15        -3.4815  -11.8142   11.3097 H         1 <0>         0.0675
     44 H16        -4.6632  -11.1543   10.1537 H         1 <0>         0.0762
     45 H17        -4.4019  -10.9930    6.8639 H         1 <0>         0.0356
     46 H18        -4.8774  -10.0653    8.3067 H         1 <0>         0.0372
     47 H19        -3.9806   -9.2683    6.9918 H         1 <0>         0.0572
@<TRIPOS>BOND
     1    1    2 1
     2    1   29 1
     3    1   30 1
     4    1   31 1
     5    2    7 ar
     6    2    3 ar
     7    3    4 ar
     8    3   32 1
     9    4    5 ar
    10    4   33 1
    11    5    6 ar
    12    5    8 1
    13    6    7 ar
    14    6   34 1
    15    7   35 1
    16    8    9 am
    17    8   36 1
    18    9   10 2
    19    9   11 am
    20   11   12 1
    21   11   37 1
    22   12   17 ar
    23   12   13 ar
    24   13   14 ar
    25   13   38 1
    26   14   15 ar
    27   14   39 1
    28   15   16 ar
    29   15   18 1
    30   16   17 ar
    31   16   40 1
    32   17   41 1
    33   18   19 2
    34   18   20 2
    35   18   21 1
    36   21   22 1
    37   22   26 1
    38   22   23 2
    39   23   24 1
    40   23   28 1
    41   24   25 2
    42   24   27 1
    43   25   26 1
    44   27   42 1
    45   27   43 1
    46   27   44 1
    47   28   45 1
    48   28   46 1
    49   28   47 1
@<TRIPOS>MOLECULE
ZINC67124428
   35    36     0     0     0
SMALL
USER_CHARGES

@<TRIPOS>ATOM
      1 C1          0.9914    2.2981   -3.9598 C.3       1 <0>        -0.1632
      2 C2          1.1312    0.8672   -4.4832 C.3       1 <0>         0.1331
      3 N1          1.2329   -0.0587   -3.3524 N.am      1 <0>        -0.7508
      4 C3          1.3642   -1.3815   -3.5742 C.2       1 <0>         0.6955
      5 O1          1.3982   -1.8066   -4.7129 O.2       1 <0>        -0.5600
      6 N2          1.4577   -2.2333   -2.5339 N.am      1 <0>        -0.6819
      7 C4          1.4967   -3.6136   -2.7610 C.ar      1 <0>         0.1843
      8 C5          0.8842   -4.4830   -1.8669 C.ar      1 <0>        -0.2473
      9 C6          0.9216   -5.8458   -2.0904 C.ar      1 <0>        -0.0512
     10 C7          1.5683   -6.3489   -3.2029 C.ar      1 <0>        -0.2767
     11 C8          2.1832   -5.4849   -4.1007 C.ar      1 <0>         0.2933
     12 C9          2.1418   -4.1148   -3.8820 C.ar      1 <0>        -0.1711
     13 N3          2.8374   -5.9941   -5.2247 N.2       1 <0>        -1.0756
     14 S1          2.8807   -7.6284   -5.4881 S.o2      1 <0>         2.6066
     15 O2          3.6604   -8.1881   -4.4402 O.2       1 <0>        -1.0247
     16 O3          1.5429   -8.0344   -5.7425 O.2       1 <0>        -1.0130
     17 C10         3.7794   -7.8921   -6.9805 C.2       1 <0>        -0.6395
     18 C11         4.9876   -8.5654   -6.9632 C.2       1 <0>        -0.0596
     19 C12         5.6529   -8.7514   -8.1301 C.2       1 <0>        -0.1375
     20 S2          4.5652   -7.9629   -9.3058 S.3       1 <0>         0.1441
     21 C13         3.2945   -7.4429   -8.1647 C.2       1 <0>         0.0035
     22 Cl1         1.8209   -6.5836   -8.4871 Cl        1 <0>         0.0629
     23 Cl2         7.1695   -9.5489   -8.4086 Cl        1 <0>         0.0168
     24 H1          0.0939    2.3743   -3.3460 H         1 <0>         0.0596
     25 H2          1.8649    2.5523   -3.3595 H         1 <0>         0.0599
     26 H3          0.9158    2.9869   -4.8012 H         1 <0>         0.0725
     27 H4          0.2577    0.6129   -5.0835 H         1 <0>         0.0649
     28 H5          2.0287    0.7909   -5.0970 H         1 <0>         0.0656
     29 H6          1.2057    0.2804   -2.4440 H         1 <0>         0.3926
     30 H7          1.4980   -1.8895   -1.6277 H         1 <0>         0.3981
     31 H8          0.3785   -4.0930   -0.9959 H         1 <0>         0.1029
     32 H9          0.4447   -6.5194   -1.3938 H         1 <0>         0.1055
     33 H10         1.5962   -7.4148   -3.3747 H         1 <0>         0.0960
     34 H11         2.6151   -3.4407   -4.5806 H         1 <0>         0.1322
     35 H12         5.3949   -8.9371   -6.0346 H         1 <0>         0.1621
@<TRIPOS>BOND
     1    1    2 1
     2    1   24 1
     3    1   25 1
     4    1   26 1
     5    2    3 1
     6    2   27 1
     7    2   28 1
     8    3    4 am
     9    3   29 1
    10    4    5 2
    11    4    6 am
    12    6    7 1
    13    6   30 1
    14    7   12 ar
    15    7    8 ar
    16    8    9 ar
    17    8   31 1
    18    9   10 ar
    19    9   32 1
    20   10   11 ar
    21   10   33 1
    22   11   12 ar
    23   11   13 1
    24   12   34 1
    25   13   14 1
    26   14   15 2
    27   14   16 2
    28   14   17 1
    29   17   21 2
    30   17   18 1
    31   18   19 2
    32   18   35 1
    33   19   20 1
    34   19   23 1
    35   20   21 1
    36   21   22 1
@<TRIPOS>MOLECULE
ZINC37053682
   33    34     0     0     0
SMALL
USER_CHARGES

@<TRIPOS>ATOM
      1 C1         -0.4612   -0.0844    2.0598 C.3       1 <0>        -0.1464
      2 S1         -0.7252   -1.8203    1.6040 S.3       1 <0>        -0.1072
      3 C2         -2.4139   -1.8777    1.1046 C.ar      1 <0>        -0.0616
      4 C3         -3.1867   -0.7219    1.1284 C.ar      1 <0>        -0.1418
      5 C4         -4.5104   -0.7664    0.7370 C.ar      1 <0>        -0.0698
      6 C5         -5.0714   -1.9585    0.3202 C.ar      1 <0>        -0.1763
      7 C6         -4.3050   -3.1175    0.2939 C.ar      1 <0>         0.1655
      8 C7         -2.9731   -3.0758    0.6814 C.ar      1 <0>        -0.1101
      9 N1         -4.8732   -4.3219   -0.1271 N.pl3     1 <0>        -1.0540
     10 S2         -5.8193   -4.3609   -1.4857 S.o2      1 <0>         2.6949
     11 O1         -6.2199   -5.7127   -1.6630 O.2       1 <0>        -0.9266
     12 O2         -6.7553   -3.2993   -1.3594 O.2       1 <0>        -0.9488
     13 C8         -4.7836   -3.9591   -2.8534 C.ar      1 <0>        -0.7502
     14 C9         -4.7429   -2.6570   -3.3357 C.ar      1 <0>         0.3373
     15 C10        -3.9251   -2.3437   -4.4136 C.ar      1 <0>        -0.1957
     16 C11        -3.1540   -3.3279   -5.0035 C.ar      1 <0>         0.0716
     17 C12        -3.1964   -4.6239   -4.5210 C.ar      1 <0>        -0.1748
     18 C13        -4.0066   -4.9379   -3.4436 C.ar      1 <0>         0.1054
     19 Cl1        -4.0513   -6.5638   -2.8370 Cl        1 <0>        -0.0177
     20 Cl2        -2.1318   -2.9373   -6.3512 Cl        1 <0>        -0.0390
     21 N2         -5.5234   -1.6648   -2.7381 N.pl3     1 <0>        -0.8592
     22 H1          0.5695    0.0526    2.3869 H         1 <0>         0.1121
     23 H2         -0.6559    0.5516    1.1962 H         1 <0>         0.0860
     24 H3         -1.1384    0.1856    2.8700 H         1 <0>         0.0865
     25 H4         -2.7513    0.2114    1.4536 H         1 <0>         0.1291
     26 H5         -5.1086    0.1326    0.7571 H         1 <0>         0.1368
     27 H6         -6.1069   -1.9897    0.0149 H         1 <0>         0.1597
     28 H7         -2.3742   -3.9742    0.6580 H         1 <0>         0.1370
     29 H8         -4.7137   -5.1356    0.3763 H         1 <0>         0.4315
     30 H9         -3.8919   -1.3323   -4.7908 H         1 <0>         0.1497
     31 H10        -2.5931   -5.3912   -4.9834 H         1 <0>         0.1528
     32 H11        -5.7782   -1.7442   -1.8055 H         1 <0>         0.4142
     33 H12        -5.8108   -0.8964   -3.2556 H         1 <0>         0.4093
@<TRIPOS>BOND
     1    1    2 1
     2    1   22 1
     3    1   23 1
     4    1   24 1
     5    2    3 1
     6    3    8 ar
     7    3    4 ar
     8    4    5 ar
     9    4   25 1
    10    5    6 ar
    11    5   26 1
    12    6    7 ar
    13    6   27 1
    14    7    8 ar
    15    7    9 1
    16    8   28 1
    17    9   10 1
    18    9   29 1
    19   10   11 2
    20   10   12 2
    21   10   13 1
    22   13   18 ar
    23   13   14 ar
    24   14   15 ar
    25   14   21 1
    26   15   16 ar
    27   15   30 1
    28   16   17 ar
    29   16   20 1
    30   17   18 ar
    31   17   31 1
    32   18   19 1
    33   21   32 1
    34   21   33 1
@<TRIPOS>MOLECULE
ZINC08581802
   45    47     0     0     0
SMALL
USER_CHARGES

@<TRIPOS>ATOM
      1 C1         -1.7039    0.8835    0.3428 C.3       1 <0>        -0.1191
      2 C2         -0.7909   -0.3017    0.1619 C.ar      1 <0>        -0.0846
      3 C3         -0.7725   -0.9834   -1.0394 C.ar      1 <0>        -0.1186
      4 C4          0.0652   -2.0706   -1.2062 C.ar      1 <0>        -0.1030
      5 C5          0.8868   -2.4796   -0.1716 C.ar      1 <0>        -0.1185
      6 C6          0.8732   -1.8025    1.0318 C.ar      1 <0>        -0.0623
      7 C7          0.0370   -0.7063    1.2008 C.ar      1 <0>         0.1130
      8 N1          0.0246   -0.0149    2.4168 N.pl3     1 <0>        -0.6288
      9 C8         -0.0569   -0.6947    3.5777 C.2       1 <0>         0.5537
     10 N2         -0.1569   -0.0269    4.7441 N.pl3     1 <0>        -0.4605
     11 N3         -0.1762    1.3739    4.7498 N.am      1 <0>        -0.5502
     12 C9         -0.2763    2.0418    5.9162 C.2       1 <0>         0.5840
     13 O1         -0.3498    1.4282    6.9639 O.2       1 <0>        -0.5109
     14 C10        -0.2966    3.5135    5.9222 C.2       1 <0>        -0.1718
     15 C11        -0.2207    4.2330    4.7521 C.2       1 <0>        -0.2252
     16 S1         -0.2792    5.8360    5.2496 S.3       1 <0>         0.2251
     17 C12        -0.4048    5.6019    6.9983 C.2       1 <0>        -0.1852
     18 C13        -0.4034    4.2593    7.1614 C.2       1 <0>        -0.0629
     19 C14        -0.5010    3.6314    8.5437 C.3       1 <0>        -0.0561
     20 C15        -0.1446    4.6906    9.5893 C.3       1 <0>        -0.1194
     21 C16        -0.9836    5.9513    9.3623 C.3       1 <0>        -0.0872
     22 H1         -2.0343    5.6779    9.2655 H         1 <0>         0.0773
     23 C17        -0.5000    6.6388    8.0737 C.3       1 <0>        -0.0348
     24 C18        -0.8090    6.9032   10.5473 C.3       1 <0>        -0.1483
     25 S2         -0.0333   -2.4066    3.5707 S.2       1 <0>        -0.5624
     26 H2         -1.1840    1.7922    0.0393 H         1 <0>         0.0725
     27 H3         -2.5951    0.7526   -0.2709 H         1 <0>         0.0768
     28 H4         -1.9928    0.9630    1.3908 H         1 <0>         0.0580
     29 H5         -1.4134   -0.6669   -1.8490 H         1 <0>         0.1279
     30 H6          0.0777   -2.6019   -2.1465 H         1 <0>         0.1264
     31 H7          1.5395   -3.3297   -0.3049 H         1 <0>         0.1296
     32 H8          1.5150   -2.1223    1.8394 H         1 <0>         0.1452
     33 H9          0.0747    0.9538    2.4245 H         1 <0>         0.3977
     34 H10        -0.1176    1.8632    3.9143 H         1 <0>         0.4166
     35 H11        -0.1417    3.8537    3.7440 H         1 <0>         0.1859
     36 H12        -1.5179    3.2775    8.7136 H         1 <0>         0.0805
     37 H13         0.1962    2.7967    8.6163 H         1 <0>         0.0915
     38 H14        -0.3448    4.2971   10.5859 H         1 <0>         0.0731
     39 H15         0.9132    4.9399    9.5059 H         1 <0>         0.0660
     40 H16         0.4775    7.0940    8.2328 H         1 <0>         0.0880
     41 H17        -1.2197    7.4043    7.7835 H         1 <0>         0.0838
     42 H18         0.2415    7.1788   10.6402 H         1 <0>         0.0576
     43 H19        -1.4068    7.7999   10.3841 H         1 <0>         0.0580
     44 H20        -1.1373    6.4091   11.4617 H         1 <0>         0.0601
     45 H21        -0.2156   -0.5162    5.5796 H         1 <0>         0.4618
@<TRIPOS>BOND
     1    1    2 1
     2    1   26 1
     3    1   27 1
     4    1   28 1
     5    2    7 ar
     6    2    3 ar
     7    3    4 ar
     8    3   29 1
     9    4    5 ar
    10    4   30 1
    11    5    6 ar
    12    5   31 1
    13    6    7 ar
    14    6   32 1
    15    7    8 1
    16    8    9 1
    17    8   33 1
    18    9   10 1
    19    9   25 2
    20   10   11 1
    21   10   45 1
    22   11   12 am
    23   11   34 1
    24   12   13 2
    25   12   14 1
    26   14   18 1
    27   14   15 2
    28   15   16 1
    29   15   35 1
    30   16   17 1
    31   17   23 1
    32   17   18 2
    33   18   19 1
    34   19   20 1
    35   19   36 1
    36   19   37 1
    37   20   21 1
    38   20   38 1
    39   20   39 1
    40   21   22 1
    41   21   23 1
    42   21   24 1
    43   23   40 1
    44   23   41 1
    45   24   42 1
    46   24   43 1
    47   24   44 1
@<TRIPOS>MOLECULE
ZINC41067828
   32    33     0     0     0
SMALL
USER_CHARGES

@<TRIPOS>ATOM
      1 C1         -0.0187    1.5258    0.0104 C.3       1 <0>        -0.1733
      2 C2          0.0021   -0.0041    0.0020 C.3       1 <0>         0.1835
      3 H1          0.5293   -0.3651    0.8851 H         1 <0>         0.1122
      4 C3          0.7074   -0.4901   -1.2379 C.ar      1 <0>        -0.0733
      5 C4         -0.0229   -0.8171   -2.3651 C.ar      1 <0>        -0.0881
      6 C5          0.6232   -1.2629   -3.5025 C.ar      1 <0>        -0.0987
      7 C6          2.0019   -1.3817   -3.5138 C.ar      1 <0>        -0.0246
      8 C7          2.7332   -1.0542   -2.3864 C.ar      1 <0>        -0.0958
      9 C8          2.0861   -0.6034   -1.2496 C.ar      1 <0>        -0.0182
     10 Cl1         3.0036   -0.1863    0.1638 Cl        1 <0>        -0.0455
     11 Cl2         2.8134   -1.9422   -4.9425 Cl        1 <0>        -0.0517
     12 N1         -1.3723   -0.5112    0.0124 N.pl3     1 <0>        -1.1091
     13 S1         -2.0922   -0.9227    1.4458 S.o2      1 <0>         2.7272
     14 O1         -3.4112   -1.3471    1.1307 O.2       1 <0>        -0.9451
     15 O2         -1.1704   -1.7521    2.1399 O.2       1 <0>        -0.9389
     16 C9         -2.2513    0.5551    2.3921 C.2       1 <0>        -0.7446
     17 C10        -3.2787    1.4389    2.4273 C.2       1 <0>        -0.0372
     18 C11        -3.1846    2.5449    3.2567 C.2       1 <0>         0.1439
     19 C12        -2.0642    2.7073    4.0085 C.2       1 <0>        -0.2384
     20 S2         -1.1046    1.2711    3.5578 S.3       1 <0>         0.1753
     21 N2         -4.2313    3.4843    3.3193 N.pl3     1 <0>        -0.8755
     22 H2          1.0039    1.9031    0.0027 H         1 <0>         0.0783
     23 H3         -0.5459    1.8868   -0.8726 H         1 <0>         0.0701
     24 H4         -0.5289    1.8773    0.9072 H         1 <0>         0.0712
     25 H5         -1.0989   -0.7246   -2.3568 H         1 <0>         0.1420
     26 H6          0.0521   -1.5189   -4.3826 H         1 <0>         0.1445
     27 H7          3.8092   -1.1467   -2.3948 H         1 <0>         0.1488
     28 H8         -1.8607   -0.6058   -0.8203 H         1 <0>         0.4198
     29 H9         -4.1568    1.2836    1.8179 H         1 <0>         0.1482
     30 H10        -1.8198    3.4980    4.7023 H         1 <0>         0.1912
     31 H11        -5.0272    3.3603    2.7788 H         1 <0>         0.3991
     32 H12        -4.1567    4.2555    3.9029 H         1 <0>         0.4025
@<TRIPOS>BOND
     1    1    2 1
     2    1   22 1
     3    1   23 1
     4    1   24 1
     5    2    3 1
     6    2    4 1
     7    2   12 1
     8    4    9 ar
     9    4    5 ar
    10    5    6 ar
    11    5   25 1
    12    6    7 ar
    13    6   26 1
    14    7    8 ar
    15    7   11 1
    16    8    9 ar
    17    8   27 1
    18    9   10 1
    19   12   13 1
    20   12   28 1
    21   13   14 2
    22   13   15 2
    23   13   16 1
    24   16   20 1
    25   16   17 2
    26   17   18 1
    27   17   29 1
    28   18   19 2
    29   18   21 1
    30   19   20 1
    31   19   30 1
    32   21   31 1
    33   21   32 1
@<TRIPOS>MOLECULE
ZINC49528713
   35    36     0     0     0
SMALL
USER_CHARGES

@<TRIPOS>ATOM
      1 C1         -0.0250    0.8733    0.6606 C.3       1 <0>        -0.1544
      2 C2         -0.1408   -0.4810   -0.0419 C.3       1 <0>        -0.1269
      3 C3          0.4764   -0.3855   -1.4386 C.3       1 <0>         0.2435
      4 H1          0.0100    0.4330   -1.9868 H         1 <0>         0.1089
      5 C4          0.2492   -1.6790   -2.1777 C.2       1 <0>        -0.1570
      6 C5         -0.6835   -1.9733   -3.1162 C.2       1 <0>        -0.1486
      7 C6         -0.7046   -3.2416   -3.6656 C.2       1 <0>        -0.1564
      8 C7          0.2080   -4.1534   -3.2496 C.2       1 <0>        -0.1736
      9 S1          1.1435   -3.2189   -2.0502 S.3       1 <0>         0.0563
     10 N1          1.9153   -0.1368   -1.3206 N.pl3     1 <0>        -1.1061
     11 S2          2.5717    1.2446   -1.9556 S.o2      1 <0>         2.6885
     12 O1          1.7958    2.3275   -1.4611 O.2       1 <0>        -0.9513
     13 O2          3.9754    1.1579   -1.7525 O.2       1 <0>        -0.9409
     14 C8          2.3108    1.1923   -3.6974 C.ar      1 <0>        -0.7179
     15 C9          1.4955    2.1320   -4.3015 C.ar      1 <0>         0.0331
     16 C10         1.2885    2.0937   -5.6662 C.ar      1 <0>        -0.2056
     17 C11         1.9005    1.1101   -6.4333 C.ar      1 <0>         0.2763
     18 C12         2.7190    0.1679   -5.8244 C.ar      1 <0>        -0.1884
     19 C13         2.9264    0.2147   -4.4586 C.ar      1 <0>         0.0541
     20 Br1         4.0469   -1.0628   -3.6289 Br        1 <0>        -0.0173
     21 N2          1.6925    1.0687   -7.8138 N.pl3     1 <0>        -0.8605
     22 H2          1.0266    1.1097    0.8228 H         1 <0>         0.0575
     23 H3         -0.4792    1.6450    0.0391 H         1 <0>         0.0643
     24 H4         -0.5399    0.8300    1.6203 H         1 <0>         0.0592
     25 H5          0.3878   -1.2375    0.5381 H         1 <0>         0.0739
     26 H6         -1.1918   -0.7573   -0.1272 H         1 <0>         0.0801
     27 H7         -1.3996   -1.2282   -3.4298 H         1 <0>         0.1318
     28 H8         -1.4375   -3.5021   -4.4149 H         1 <0>         0.1321
     29 H9          0.3380   -5.1781   -3.5650 H         1 <0>         0.1843
     30 H10         2.4836   -0.7813   -0.8704 H         1 <0>         0.4209
     31 H11         1.0199    2.8965   -3.7051 H         1 <0>         0.1516
     32 H12         0.6510    2.8276   -6.1369 H         1 <0>         0.1375
     33 H13         3.1959   -0.5982   -6.4177 H         1 <0>         0.1388
     34 H14         1.1203    1.7271   -8.2380 H         1 <0>         0.4066
     35 H15         2.1202    0.3816   -8.3483 H         1 <0>         0.4055
@<TRIPOS>BOND
     1    1    2 1
     2    1   22 1
     3    1   23 1
     4    1   24 1
     5    2    3 1
     6    2   25 1
     7    2   26 1
     8    3    4 1
     9    3    5 1
    10    3   10 1
    11    5    9 1
    12    5    6 2
    13    6    7 1
    14    6   27 1
    15    7    8 2
    16    7   28 1
    17    8    9 1
    18    8   29 1
    19   10   11 1
    20   10   30 1
    21   11   12 2
    22   11   13 2
    23   11   14 1
    24   14   19 ar
    25   14   15 ar
    26   15   16 ar
    27   15   31 1
    28   16   17 ar
    29   16   32 1
    30   17   18 ar
    31   17   21 1
    32   18   19 ar
    33   18   33 1
    34   19   20 1
    35   21   34 1
    36   21   35 1
@<TRIPOS>MOLECULE
ZINC66441516
   43    45     0     0     0
SMALL
USER_CHARGES

@<TRIPOS>ATOM
      1 C1         -1.9656    1.3741   -2.0270 C.3       1 <0>        -0.1275
      2 C2         -1.5738   -0.0500   -1.7280 C.ar      1 <0>        -0.0285
      3 C3         -2.0292   -1.0746   -2.5328 C.ar      1 <0>        -0.1117
      4 C4         -1.6723   -2.3823   -2.2630 C.ar      1 <0>        -0.0841
      5 C5         -0.8528   -2.6745   -1.1792 C.ar      1 <0>         0.1272
      6 C6         -0.3901   -1.6528   -0.3649 C.ar      1 <0>        -0.1057
      7 C7         -0.7456   -0.3324   -0.6405 C.ar      1 <0>        -0.1288
      8 C8         -0.2512    0.7639    0.2198 C.2       1 <0>         0.5649
      9 O1         -0.5787    1.9116   -0.0101 O.2       1 <0>        -0.5288
     10 N1          0.5625    0.4905    1.2588 N.am      1 <0>        -0.8516
     11 N2         -0.4950   -4.0005   -0.9098 N.am      1 <0>        -0.6701
     12 C9         -0.2679   -4.8568   -1.9255 C.2       1 <0>         0.5471
     13 O2         -0.4603   -4.5047   -3.0701 O.2       1 <0>        -0.5057
     14 C10         0.2251   -6.2518   -1.6390 C.3       1 <0>        -0.0727
     15 C11         1.6665   -6.2982   -1.1052 C.3       1 <0>        -0.1176
     16 C12         2.1232   -6.3806   -2.5713 C.3       1 <0>        -0.1422
     17 C13         0.7459   -6.9889   -2.8841 C.3       1 <0>        -0.1168
     18 C14        -0.7494   -7.0606   -0.8222 C.ar      1 <0>        -0.0548
     19 C15        -1.3916   -8.1461   -1.3884 C.ar      1 <0>        -0.1005
     20 C16        -2.2851   -8.8885   -0.6395 C.ar      1 <0>        -0.0836
     21 C17        -2.5368   -8.5452    0.6766 C.ar      1 <0>        -0.0894
     22 C18        -1.8940   -7.4591    1.2427 C.ar      1 <0>        -0.0835
     23 C19        -0.9967   -6.7204    0.4946 C.ar      1 <0>        -0.1118
     24 Br1        -3.7596   -9.5602    1.7015 Br        1 <0>        -0.0443
     25 H1         -1.1712    1.8578   -2.5955 H         1 <0>         0.0751
     26 H2         -2.8866    1.3828   -2.6098 H         1 <0>         0.0602
     27 H3         -2.1222    1.9118   -1.0918 H         1 <0>         0.1007
     28 H4         -2.6669   -0.8537   -3.3760 H         1 <0>         0.1358
     29 H5         -2.0318   -3.1798   -2.8964 H         1 <0>         0.1433
     30 H6          0.2466   -1.8779    0.4779 H         1 <0>         0.1289
     31 H7          0.8239   -0.4255    1.4422 H         1 <0>         0.3991
     32 H8          0.8869    1.2097    1.8231 H         1 <0>         0.4067
     33 H9         -0.4106   -4.3032    0.0078 H         1 <0>         0.4088
     34 H10         1.9757   -5.3819   -0.6024 H         1 <0>         0.0747
     35 H11         1.8895   -7.1952   -0.5274 H         1 <0>         0.0989
     36 H12         2.2856   -5.4068   -3.0334 H         1 <0>         0.0848
     37 H13         2.9519   -7.0701   -2.7324 H         1 <0>         0.0790
     38 H14         0.7172   -8.0747   -2.7926 H         1 <0>         0.0967
     39 H15         0.3119   -6.6301   -3.8174 H         1 <0>         0.0896
     40 H16        -1.1953   -8.4138   -2.4161 H         1 <0>         0.1383
     41 H17        -2.7870   -9.7363   -1.0820 H         1 <0>         0.1372
     42 H18        -2.0902   -7.1907    2.2703 H         1 <0>         0.1368
     43 H19        -0.4917   -5.8748    0.9378 H         1 <0>         0.1260
@<TRIPOS>BOND
     1    1    2 1
     2    1   25 1
     3    1   26 1
     4    1   27 1
     5    2    7 ar
     6    2    3 ar
     7    3    4 ar
     8    3   28 1
     9    4    5 ar
    10    4   29 1
    11    5    6 ar
    12    5   11 1
    13    6    7 ar
    14    6   30 1
    15    7    8 1
    16    8    9 2
    17    8   10 am
    18   10   31 1
    19   10   32 1
    20   11   12 am
    21   11   33 1
    22   12   13 2
    23   12   14 1
    24   14   17 1
    25   14   15 1
    26   14   18 1
    27   15   16 1
    28   15   34 1
    29   15   35 1
    30   16   17 1
    31   16   36 1
    32   16   37 1
    33   17   38 1
    34   17   39 1
    35   18   23 ar
    36   18   19 ar
    37   19   20 ar
    38   19   40 1
    39   20   21 ar
    40   20   41 1
    41   21   22 ar
    42   21   24 1
    43   22   23 ar
    44   22   42 1
    45   23   43 1
@<TRIPOS>MOLECULE
ZINC17090129
   41    42     0     0     0
SMALL
USER_CHARGES
N-[4-[N-[(4-chlorophenyl)carbamothioylamino]-C-methyl-carbonimidoyl]phenyl]-2,2,2-trifluoro-acetamide
@<TRIPOS>ATOM
      1 C1         -5.0688    5.3510   -0.6120 C.3       1 <0>        -0.1017
      2 C2         -5.1178    4.0703    0.1809 C.2       1 <0>         0.1901
      3 N1         -6.2433    3.4407    0.3278 N.2       1 <0>        -0.2885
      4 N2         -6.2642    2.1736    0.9251 N.pl3     1 <0>        -0.5354
      5 C3         -7.4257    1.4983    1.0325 C.2       1 <0>         0.5803
      6 S1         -7.4513   -0.0501    1.7625 S.2       1 <0>        -0.5857
      7 N3         -8.5670    2.0420    0.5653 N.pl3     1 <0>        -0.6114
      8 C4         -9.7902    1.4007    0.7889 C.ar      1 <0>         0.1260
      9 C5        -10.7618    1.3900   -0.2034 C.ar      1 <0>        -0.1106
     10 C6        -11.9663    0.7518    0.0181 C.ar      1 <0>        -0.1035
     11 C7        -12.2100    0.1330    1.2317 C.ar      1 <0>        -0.0299
     12 C8        -11.2457    0.1467    2.2241 C.ar      1 <0>        -0.0998
     13 C9        -10.0372    0.7786    2.0058 C.ar      1 <0>        -0.0650
     14 Cl1       -13.7280   -0.6622    1.5094 Cl        1 <0>        -0.0666
     15 C10        -3.8876    3.5328    0.7896 C.ar      1 <0>        -0.1256
     16 C11        -3.9202    2.9990    2.0808 C.ar      1 <0>        -0.0929
     17 C12        -2.7685    2.4972    2.6461 C.ar      1 <0>        -0.1052
     18 C13        -1.5748    2.5209    1.9336 C.ar      1 <0>         0.1564
     19 C14        -1.5370    3.0563    0.6510 C.ar      1 <0>        -0.1267
     20 C15        -2.6856    3.5553    0.0768 C.ar      1 <0>        -0.0593
     21 N4         -0.4084    2.0104    2.5105 N.am      1 <0>        -0.6480
     22 C16        -0.4695    0.9230    3.3043 C.2       1 <0>         0.4829
     23 O1         -1.5409    0.4097    3.5484 O.2       1 <0>        -0.4458
     24 C17         0.7935    0.3449    3.8888 C.3       1 <0>         0.4580
     25 F1          0.4772   -0.7707    4.6715 F         1 <0>        -0.1453
     26 F2          1.6527   -0.0400    2.8540 F         1 <0>        -0.1622
     27 F3          1.4233    1.3087    4.6836 F         1 <0>        -0.1628
     28 H1         -4.8682    5.1227   -1.6588 H         1 <0>         0.0957
     29 H2         -6.0257    5.8663   -0.5294 H         1 <0>         0.0893
     30 H3         -4.2770    5.9901   -0.2213 H         1 <0>         0.0906
     31 H4         -5.4428    1.7822    1.2614 H         1 <0>         0.4220
     32 H5         -8.5403    2.8779    0.0739 H         1 <0>         0.4201
     33 H6        -10.5738    1.8766   -1.1491 H         1 <0>         0.1347
     34 H7        -12.7205    0.7394   -0.7549 H         1 <0>         0.1395
     35 H8        -11.4382   -0.3376    3.1701 H         1 <0>         0.1401
     36 H9         -9.2848    0.7886    2.7805 H         1 <0>         0.1554
     37 H10        -4.8472    2.9796    2.6346 H         1 <0>         0.1331
     38 H11        -2.7929    2.0845    3.6438 H         1 <0>         0.1472
     39 H12        -0.6069    3.0770    0.1024 H         1 <0>         0.1421
     40 H13        -2.6564    3.9670   -0.9212 H         1 <0>         0.1436
     41 H14         0.4443    2.4411    2.3426 H         1 <0>         0.4248
@<TRIPOS>BOND
     1    1    2 1
     2    1   28 1
     3    1   29 1
     4    1   30 1
     5    2    3 2
     6    2   15 1
     7    3    4 1
     8    4    5 1
     9    4   31 1
    10    5    6 2
    11    5    7 1
    12    7    8 1
    13    7   32 1
    14    8   13 ar
    15    8    9 ar
    16    9   10 ar
    17    9   33 1
    18   10   11 ar
    19   10   34 1
    20   11   12 ar
    21   11   14 1
    22   12   13 ar
    23   12   35 1
    24   13   36 1
    25   15   20 ar
    26   15   16 ar
    27   16   17 ar
    28   16   37 1
    29   17   18 ar
    30   17   38 1
    31   18   19 ar
    32   18   21 1
    33   19   20 ar
    34   19   39 1
    35   20   40 1
    36   21   22 am
    37   21   41 1
    38   22   23 2
    39   22   24 1
    40   24   25 1
    41   24   26 1
    42   24   27 1
@<TRIPOS>MOLECULE
ZINC01741748
   47    49     0     0     0
SMALL
USER_CHARGES

@<TRIPOS>ATOM
      1 C1         -2.3489   -2.8416    3.5447 C.3       1 <0>        -0.1710
      2 C2         -1.5367   -2.8462    2.2753 C.2       1 <0>         0.5004
      3 O1         -0.4971   -3.4689    2.2228 O.2       1 <0>        -0.4947
      4 N1         -1.9655   -2.1586    1.1984 N.am      1 <0>        -0.6589
      5 C3         -1.1640   -2.0794    0.0544 C.2       1 <0>         0.0983
      6 C4         -1.5476   -1.3073   -0.9882 C.2       1 <0>        -0.1474
      7 C5         -0.7847   -1.3372   -2.2454 C.ar      1 <0>        -0.0455
      8 C6         -0.1363   -2.5101   -2.6463 C.ar      1 <0>        -0.1089
      9 C7          0.5769   -2.5306   -3.8257 C.ar      1 <0>        -0.1018
     10 C8          0.6528   -1.3933   -4.6131 C.ar      1 <0>        -0.0318
     11 C9          0.0132   -0.2281   -4.2225 C.ar      1 <0>        -0.1095
     12 C10        -0.7088   -0.1945   -3.0487 C.ar      1 <0>        -0.0927
     13 Cl1         1.5542   -1.4283   -6.0963 Cl        1 <0>        -0.0683
     14 C11         0.0948   -2.8350   -0.0148 C.2       1 <0>         0.5812
     15 O2          0.0722   -4.0493   -0.0869 O.2       1 <0>        -0.5160
     16 N2          1.2741   -2.1828    0.0017 N.am      1 <0>        -0.7169
     17 C12         2.5243   -2.9251   -0.1773 C.3       1 <0>         0.1300
     18 C13         3.7063   -1.9554   -0.1174 C.3       1 <0>        -0.0515
     19 C14         4.9924   -2.7191   -0.3016 C.2       1 <0>        -0.1712
     20 C15         5.7852   -3.1943    0.6718 C.2       1 <0>         0.0612
     21 N3          6.8642   -3.8334    0.1244 N.pl3     1 <0>        -0.5949
     22 H1          7.5753   -4.2582    0.6291 H         1 <0>         0.4167
     23 C16         6.7902   -3.7837   -1.2497 C.ar      1 <0>         0.0948
     24 C17         5.6112   -3.0890   -1.5768 C.ar      1 <0>        -0.0993
     25 C18         5.2694   -2.8886   -2.9154 C.ar      1 <0>        -0.0689
     26 C19         6.0814   -3.3721   -3.9025 C.ar      1 <0>        -0.1442
     27 C20         7.2434   -4.0616   -3.5851 C.ar      1 <0>        -0.0980
     28 C21         7.6044   -4.2626   -2.2705 C.ar      1 <0>        -0.1309
     29 H2         -1.8475   -3.4477    4.2991 H         1 <0>         0.0992
     30 H3         -2.4492   -1.8188    3.9081 H         1 <0>         0.0944
     31 H4         -3.3376   -3.2548    3.3449 H         1 <0>         0.0942
     32 H5         -2.8298   -1.7186    1.2164 H         1 <0>         0.4176
     33 H6         -2.4140   -0.6690   -0.8973 H         1 <0>         0.1406
     34 H7         -0.1940   -3.3972   -2.0330 H         1 <0>         0.1436
     35 H8          1.0780   -3.4355   -4.1365 H         1 <0>         0.1339
     36 H9          0.0770    0.6548   -4.8412 H         1 <0>         0.1352
     37 H10        -1.2108    0.7131   -2.7478 H         1 <0>         0.1353
     38 H11         1.2951   -1.2218    0.1322 H         1 <0>         0.3990
     39 H12         2.6228   -3.6673    0.6149 H         1 <0>         0.0705
     40 H13         2.5140   -3.4261   -1.1453 H         1 <0>         0.0687
     41 H14         3.6078   -1.2132   -0.9096 H         1 <0>         0.0765
     42 H15         3.7166   -1.4545    0.8506 H         1 <0>         0.0753
     43 H16         5.5991   -3.0878    1.7303 H         1 <0>         0.1699
     44 H17         4.3664   -2.3536   -3.1699 H         1 <0>         0.1199
     45 H18         5.8166   -3.2168   -4.9380 H         1 <0>         0.1220
     46 H19         7.8745   -4.4383   -4.3763 H         1 <0>         0.1247
     47 H20         8.5100   -4.8014   -2.0337 H         1 <0>         0.1191
@<TRIPOS>BOND
     1    1    2 1
     2    1   29 1
     3    1   30 1
     4    1   31 1
     5    2    3 2
     6    2    4 am
     7    4    5 1
     8    4   32 1
     9    5    6 2
    10    5   14 1
    11    6    7 1
    12    6   33 1
    13    7   12 ar
    14    7    8 ar
    15    8    9 ar
    16    8   34 1
    17    9   10 ar
    18    9   35 1
    19   10   11 ar
    20   10   13 1
    21   11   12 ar
    22   11   36 1
    23   12   37 1
    24   14   15 2
    25   14   16 am
    26   16   17 1
    27   16   38 1
    28   17   18 1
    29   17   39 1
    30   17   40 1
    31   18   19 1
    32   18   41 1
    33   18   42 1
    34   19   24 1
    35   19   20 2
    36   20   21 1
    37   20   43 1
    38   21   22 1
    39   21   23 1
    40   23   28 ar
    41   23   24 ar
    42   24   25 ar
    43   25   26 ar
    44   25   44 1
    45   26   27 ar
    46   26   45 1
    47   27   28 ar
    48   27   46 1
    49   28   47 1
@<TRIPOS>MOLECULE
ZINC54507272
   42    44     0     0     0
SMALL
USER_CHARGES

@<TRIPOS>ATOM
      1 C1          2.2503   -2.4297   -1.2667 C.ar      1 <0>        -0.0431
      2 C2          3.4346   -1.7234   -1.2712 C.ar      1 <0>        -0.1166
      3 C3          3.5084   -0.4856   -0.6540 C.ar      1 <0>        -0.0091
      4 C4          2.3945    0.0503   -0.0289 C.ar      1 <0>        -0.1169
      5 C5          1.2047   -0.6464   -0.0177 C.ar      1 <0>        -0.0731
      6 C6          1.1240   -1.8947   -0.6383 C.ar      1 <0>        -0.1337
      7 C7         -0.1481   -2.6462   -0.6303 C.2       1 <0>         0.5600
      8 O1         -0.2157   -3.7327   -1.1717 O.2       1 <0>        -0.5110
      9 N1         -1.2336   -2.1272   -0.0229 N.am      1 <0>        -0.6670
     10 C8         -2.4631   -2.7928   -0.0981 C.ar      1 <0>         0.1244
     11 C9         -3.6434   -2.0647   -0.1743 C.ar      1 <0>        -0.1224
     12 C10        -4.8556   -2.7210   -0.2490 C.ar      1 <0>        -0.1279
     13 C11        -4.8949   -4.1090   -0.2475 C.ar      1 <0>         0.1511
     14 C12        -3.7150   -4.8371   -0.1708 C.ar      1 <0>        -0.0999
     15 C13        -2.5022   -4.1810   -0.1024 C.ar      1 <0>        -0.0985
     16 N2         -6.1254   -4.7750   -0.3228 N.am      1 <0>        -0.6856
     17 C14        -6.3063   -5.9336    0.3416 C.2       1 <0>         0.7036
     18 O2         -5.3776   -6.4441    0.9377 O.2       1 <0>        -0.5704
     19 N3         -7.5168   -6.5263    0.3454 N.am      1 <0>        -0.7372
     20 C15        -7.7135   -7.7856    1.0676 C.3       1 <0>         0.1961
     21 C16        -9.1442   -8.2338    0.9154 C.2       1 <0>        -0.1485
     22 C17       -10.1061   -7.8298    1.8222 C.2       1 <0>        -0.1484
     23 C18       -11.3838   -8.2509    1.6565 C.2       1 <0>        -0.1705
     24 S1        -11.2551   -9.2502    0.1828 S.3       1 <0>         0.0481
     25 C19        -9.5082   -9.0346   -0.1159 C.2       1 <0>        -0.1501
     26 Cl1         5.0030    0.3973   -0.6634 Cl        1 <0>        -0.0568
     27 H1          2.1927   -3.3927   -1.7522 H         1 <0>         0.1487
     28 H2          4.3064   -2.1364   -1.7567 H         1 <0>         0.1441
     29 H3          2.4582    1.0158    0.4510 H         1 <0>         0.1429
     30 H4          0.3369   -0.2277    0.4703 H         1 <0>         0.1363
     31 H5         -1.1629   -1.2927    0.4665 H         1 <0>         0.4099
     32 H6         -3.6128   -0.9851   -0.1748 H         1 <0>         0.1302
     33 H7         -5.7734   -2.1548   -0.3083 H         1 <0>         0.1300
     34 H8         -3.7457   -5.9167   -0.1689 H         1 <0>         0.1452
     35 H9         -1.5843   -4.7473   -0.0472 H         1 <0>         0.1426
     36 H10        -6.8469   -4.4023   -0.8532 H         1 <0>         0.4069
     37 H11        -8.2577   -6.1190   -0.1301 H         1 <0>         0.3988
     38 H12        -7.0489   -8.5466    0.6586 H         1 <0>         0.0780
     39 H13        -7.4896   -7.6374    2.1240 H         1 <0>         0.0772
     40 H14        -9.8434   -7.1885    2.6505 H         1 <0>         0.1363
     41 H15       -12.2538   -8.0375    2.2597 H         1 <0>         0.1878
     42 H16        -8.8993   -9.4383   -0.9112 H         1 <0>         0.1885
@<TRIPOS>BOND
     1    1    6 ar
     2    1    2 ar
     3    1   27 1
     4    2    3 ar
     5    2   28 1
     6    3    4 ar
     7    3   26 1
     8    4    5 ar
     9    4   29 1
    10    5    6 ar
    11    5   30 1
    12    6    7 1
    13    7    8 2
    14    7    9 am
    15    9   10 1
    16    9   31 1
    17   10   15 ar
    18   10   11 ar
    19   11   12 ar
    20   11   32 1
    21   12   13 ar
    22   12   33 1
    23   13   14 ar
    24   13   16 1
    25   14   15 ar
    26   14   34 1
    27   15   35 1
    28   16   17 am
    29   16   36 1
    30   17   18 2
    31   17   19 am
    32   19   20 1
    33   19   37 1
    34   20   21 1
    35   20   38 1
    36   20   39 1
    37   21   25 2
    38   21   22 1
    39   22   23 2
    40   22   40 1
    41   23   24 1
    42   23   41 1
    43   24   25 1
    44   25   42 1
@<TRIPOS>MOLECULE
ZINC62252124
   49    52     0     0     0
SMALL
USER_CHARGES

@<TRIPOS>ATOM
      1 C1         -0.0915    1.1166   -0.6981 C.ar      1 <0>        -0.1204
      2 C2          0.0038   -0.0194    0.0839 C.ar      1 <0>        -0.1172
      3 C3          1.2351   -0.6103    0.2973 C.ar      1 <0>        -0.1119
      4 C4          2.3711   -0.0656   -0.2716 C.ar      1 <0>        -0.0739
      5 C5          2.2757    1.0698   -1.0544 C.ar      1 <0>        -0.0994
      6 C6          1.0445    1.6616   -1.2666 C.ar      1 <0>        -0.1179
      7 C7          3.7136   -0.7092   -0.0382 C.3       1 <0>         0.2074
      8 C8          3.9329   -1.1676    1.4132 C.3       1 <0>        -0.1322
      9 C9          4.6072   -2.4217    0.8323 C.3       1 <0>        -0.1424
     10 C10         3.7611   -2.1951   -0.4317 C.3       1 <0>        -0.1299
     11 N1          4.8237    0.0775   -0.5812 N.am      1 <0>        -0.7187
     12 C11         5.1089    1.2882   -0.0622 C.2       1 <0>         0.7061
     13 O1          4.5063    1.6879    0.9151 O.2       1 <0>        -0.5505
     14 N2          6.0621    2.0558   -0.6267 N.am      1 <0>        -0.6858
     15 C12         6.2941    3.3444   -0.1473 C.ar      1 <0>         0.2091
     16 C13         6.1726    3.6111    1.2135 C.ar      1 <0>        -0.1247
     17 C14         6.4006    4.8813    1.6911 C.ar      1 <0>        -0.0534
     18 C15         6.7549    5.9056    0.8080 C.ar      1 <0>        -0.1510
     19 C16         6.8762    5.6348   -0.5589 C.ar      1 <0>         0.0381
     20 C17         6.6517    4.3584   -1.0289 C.ar      1 <0>        -0.1526
     21 Cl1         7.3157    6.9023   -1.6607 Cl        1 <0>        -0.0232
     22 C18         6.9996    7.2685    1.3164 C.2       1 <0>         0.5608
     23 O2          7.3076    8.1582    0.5470 O.2       1 <0>        -0.5122
     24 N3          6.8817    7.5276    2.6338 N.am      1 <0>        -0.7003
     25 C19         7.1248    8.8812    3.1387 C.3       1 <0>         0.0806
     26 C20         7.9534    9.0200    4.4173 C.3       1 <0>        -0.1925
     27 C21         6.4458    9.2781    4.4510 C.3       1 <0>        -0.1889
     28 H1         -1.0541    1.5757   -0.8684 H         1 <0>         0.1214
     29 H2         -0.8837   -0.4449    0.5285 H         1 <0>         0.1233
     30 H3          1.3096   -1.4973    0.9089 H         1 <0>         0.1228
     31 H4          3.1632    1.4956   -1.4986 H         1 <0>         0.1109
     32 H5          0.9700    2.5489   -1.8778 H         1 <0>         0.1194
     33 H6          4.6125   -0.5271    1.9754 H         1 <0>         0.0801
     34 H7          3.0074   -1.3781    1.9492 H         1 <0>         0.0938
     35 H8          5.6783   -2.3048    0.6675 H         1 <0>         0.0814
     36 H9          4.3576   -3.3386    1.3662 H         1 <0>         0.0752
     37 H10         2.7887   -2.6864   -0.4001 H         1 <0>         0.1014
     38 H11         4.3020   -2.3841   -1.3589 H         1 <0>         0.0763
     39 H12         5.3536   -0.2730   -1.3142 H         1 <0>         0.4018
     40 H13         6.5867    1.7119   -1.3666 H         1 <0>         0.4111
     41 H14         5.8986    2.8198    1.8956 H         1 <0>         0.1538
     42 H15         6.3057    5.0868    2.7471 H         1 <0>         0.1366
     43 H16         6.7493    4.1468   -2.0835 H         1 <0>         0.1436
     44 H17         6.6360    6.8178    3.2476 H         1 <0>         0.3998
     45 H18         7.2396    9.6532    2.3778 H         1 <0>         0.1404
     46 H19         8.3178    8.1043    4.8829 H         1 <0>         0.0972
     47 H20         8.6138    9.8835    4.4978 H         1 <0>         0.1038
     48 H21         6.1142   10.3114    4.5537 H         1 <0>         0.1051
     49 H22         5.8182    8.5322    4.9387 H         1 <0>         0.0977
@<TRIPOS>BOND
     1    1    6 ar
     2    1    2 ar
     3    1   28 1
     4    2    3 ar
     5    2   29 1
     6    3    4 ar
     7    3   30 1
     8    4    5 ar
     9    4    7 1
    10    5    6 ar
    11    5   31 1
    12    6   32 1
    13    7   10 1
    14    7    8 1
    15    7   11 1
    16    8    9 1
    17    8   33 1
    18    8   34 1
    19    9   10 1
    20    9   35 1
    21    9   36 1
    22   10   37 1
    23   10   38 1
    24   11   12 am
    25   11   39 1
    26   12   13 2
    27   12   14 am
    28   14   15 1
    29   14   40 1
    30   15   20 ar
    31   15   16 ar
    32   16   17 ar
    33   16   41 1
    34   17   18 ar
    35   17   42 1
    36   18   19 ar
    37   18   22 1
    38   19   20 ar
    39   19   21 1
    40   20   43 1
    41   22   23 2
    42   22   24 am
    43   24   25 1
    44   24   44 1
    45   25   27 1
    46   25   26 1
    47   25   45 1
    48   26   27 1
    49   26   46 1
    50   26   47 1
    51   27   48 1
    52   27   49 1
@<TRIPOS>MOLECULE
ZINC67568641
   42    44     0     0     0
SMALL
USER_CHARGES

@<TRIPOS>ATOM
      1 C1         -0.0167    1.3779    0.0096 C.ar      1 <0>        -0.1130
      2 C2          1.1711    2.0854    0.0021 C.ar      1 <0>        -0.0868
      3 C3          2.3773    1.4107   -0.0130 C.ar      1 <0>        -0.0540
      4 C4          2.3960    0.0283   -0.0201 C.ar      1 <0>        -0.0619
      5 C5          1.2086   -0.6790   -0.0117 C.ar      1 <0>        -0.1783
      6 C6          0.0021   -0.0041    0.0020 C.ar      1 <0>        -0.0721
      7 C7          1.2291   -2.1858   -0.0204 C.3       1 <0>         0.5080
      8 F1          1.2492   -2.6596    1.2958 F         1 <0>        -0.1757
      9 F2          0.0864   -2.6639   -0.6707 F         1 <0>        -0.1756
     10 F3          2.3706   -2.6328   -0.6944 F         1 <0>        -0.1765
     11 C8          3.6720    2.1819   -0.0222 C.3       1 <0>        -0.1243
     12 H1          4.5339    1.6585    0.3915 H         1 <0>         0.1210
     13 C9          3.5946    3.6949    0.1920 C.3       1 <0>        -0.1800
     14 C10         3.9191    3.1334   -1.1946 C.3       1 <0>         0.1147
     15 H2          3.1453    3.2016   -1.9592 H         1 <0>         0.1469
     16 N1          5.2963    3.2717   -1.6749 N.am      1 <0>        -0.7151
     17 C11         5.5316    3.6538   -2.9457 C.2       1 <0>         0.7192
     18 O1          4.6010    3.8839   -3.6936 O.2       1 <0>        -0.5598
     19 N2          6.7985    3.7810   -3.3875 N.am      1 <0>        -0.5268
     20 N3          7.8709    3.5159   -2.5258 N.am      1 <0>        -0.5280
     21 C12         9.1378    3.6430   -2.9676 C.2       1 <0>         0.5669
     22 O2          9.3500    3.9878   -4.1139 O.2       1 <0>        -0.5199
     23 C13        10.2685    3.3635   -2.0590 C.ar      1 <0>        -0.1438
     24 C14        10.0274    2.9618   -0.7434 C.ar      1 <0>        -0.0574
     25 C15        11.0861    2.7018    0.1001 C.ar      1 <0>        -0.1583
     26 C16        12.3885    2.8389   -0.3554 C.ar      1 <0>         0.1340
     27 C17        12.6335    3.2379   -1.6605 C.ar      1 <0>        -0.1576
     28 C18        11.5822    3.4945   -2.5142 C.ar      1 <0>        -0.0218
     29 F4         13.4226    2.5832    0.4756 F         1 <0>        -0.1291
     30 H3         -0.9591    1.9051    0.0259 H         1 <0>         0.1384
     31 H4          1.1565    3.1653    0.0076 H         1 <0>         0.1358
     32 H5          3.3385   -0.4989   -0.0326 H         1 <0>         0.1359
     33 H6         -0.9258   -0.5567    0.0079 H         1 <0>         0.1375
     34 H7          2.6072    4.1324    0.3396 H         1 <0>         0.1125
     35 H8          4.4058    4.1668    0.7463 H         1 <0>         0.1069
     36 H9          6.0387    3.0881   -1.0782 H         1 <0>         0.3924
     37 H10         6.9679    4.0561   -4.3022 H         1 <0>         0.4474
     38 H11         7.7015    3.2408   -1.6112 H         1 <0>         0.4177
     39 H12         9.0134    2.8553   -0.3875 H         1 <0>         0.1333
     40 H13        10.9009    2.3910    1.1177 H         1 <0>         0.1470
     41 H14        13.6499    3.3439   -2.0100 H         1 <0>         0.1486
     42 H15        11.7741    3.8009   -3.5319 H         1 <0>         0.1515
@<TRIPOS>BOND
     1    1    6 ar
     2    1    2 ar
     3    1   30 1
     4    2    3 ar
     5    2   31 1
     6    3    4 ar
     7    3   11 1
     8    4    5 ar
     9    4   32 1
    10    5    6 ar
    11    5    7 1
    12    6   33 1
    13    7    8 1
    14    7    9 1
    15    7   10 1
    16   11   12 1
    17   11   14 1
    18   11   13 1
    19   13   14 1
    20   13   34 1
    21   13   35 1
    22   14   15 1
    23   14   16 1
    24   16   17 am
    25   16   36 1
    26   17   18 2
    27   17   19 am
    28   19   20 1
    29   19   37 1
    30   20   21 am
    31   20   38 1
    32   21   22 2
    33   21   23 1
    34   23   28 ar
    35   23   24 ar
    36   24   25 ar
    37   24   39 1
    38   25   26 ar
    39   25   40 1
    40   26   27 ar
    41   26   29 1
    42   27   28 ar
    43   27   41 1
    44   28   42 1
@<TRIPOS>MOLECULE
ZINC14461450
   55    58     0     0     0
SMALL
USER_CHARGES
(3aR,4S,9bS)-4-(4-diethylaminophenyl)-3a,4,5,9b-tetrahydro-3H-cyclopenta[c]quinoline-8-sulfonamide
@<TRIPOS>ATOM
      1 C1          1.3201    5.0359   -5.0498 C.3       1 <0>        -0.1721
      2 C2          0.9503    6.1807   -4.1046 C.3       1 <0>         0.1192
      3 N1         -0.3210    5.8766   -3.4432 N.pl3     1 <0>        -0.6280
      4 C3         -1.5839    6.2991   -4.0539 C.3       1 <0>         0.1182
      5 C4         -1.9508    7.6969   -3.5514 C.3       1 <0>        -0.1723
      6 C5         -0.3291    5.1837   -2.2304 C.ar      1 <0>         0.2223
      7 C6         -1.5337    4.8945   -1.6020 C.ar      1 <0>        -0.1959
      8 C7         -1.5381    4.2089   -0.4031 C.ar      1 <0>        -0.0536
      9 C8         -0.3451    3.8104    0.1717 C.ar      1 <0>        -0.1482
     10 C9          0.8561    4.1017   -0.4485 C.ar      1 <0>        -0.0592
     11 C10         0.8674    4.7820   -1.6503 C.ar      1 <0>        -0.1980
     12 C11        -0.3538    3.0625    1.4799 C.3       1 <0>         0.2062
     13 H1          0.5563    3.2861    2.0364 H         1 <0>         0.0960
     14 C12        -0.4330    1.5572    1.2097 C.3       1 <0>        -0.0990
     15 H2         -0.2997    0.9517    2.1062 H         1 <0>         0.0975
     16 C13         0.6040    1.2309    0.0950 C.3       1 <0>        -0.0934
     17 C14        -0.1269    1.5869   -1.1851 C.2       1 <0>        -0.1481
     18 C15        -1.4232    1.5815   -0.9901 C.2       1 <0>        -0.1549
     19 C16        -1.7345    1.2269    0.4444 C.3       1 <0>        -0.0086
     20 H3         -1.9407    0.1593    0.5195 H         1 <0>         0.0918
     21 C17        -2.9072    2.0006    0.9575 C.ar      1 <0>        -0.1608
     22 C18        -4.1801    1.6364    0.5399 C.ar      1 <0>         0.0250
     23 C19        -5.2892    2.3227    0.9903 C.ar      1 <0>        -0.7300
     24 C20        -5.1450    3.3845    1.8649 C.ar      1 <0>         0.0208
     25 C21        -3.9148    3.7359    2.2855 C.ar      1 <0>        -0.2068
     26 C22        -2.7892    3.0580    1.8343 C.ar      1 <0>         0.2812
     27 N2         -1.5232    3.4653    2.2683 N.pl3     1 <0>        -0.7349
     28 S1         -6.8962    1.8447    0.4485 S.o2      1 <0>         2.7023
     29 O1         -7.7280    2.9887    0.5855 O.2       1 <0>        -0.9688
     30 O2         -6.7235    1.1725   -0.7915 O.2       1 <0>        -0.9673
     31 N3         -7.4603    0.7180    1.5230 N.pl3     1 <0>        -1.2506
     32 H4          2.2660    5.2622   -5.5419 H         1 <0>         0.0633
     33 H5          1.4189    4.1119   -4.4802 H         1 <0>         0.0581
     34 H6          0.5390    4.9180   -5.8008 H         1 <0>         0.0555
     35 H7          0.8515    7.1048   -4.6743 H         1 <0>         0.0716
     36 H8          1.7315    6.2986   -3.3536 H         1 <0>         0.0742
     37 H9         -1.4741    6.3199   -5.1381 H         1 <0>         0.0724
     38 H10        -2.3719    5.5968   -3.7819 H         1 <0>         0.0750
     39 H11        -2.0606    7.6761   -2.4672 H         1 <0>         0.0576
     40 H12        -1.1628    8.3992   -3.8234 H         1 <0>         0.0552
     41 H13        -2.8904    8.0112   -4.0058 H         1 <0>         0.0642
     42 H14        -2.4657    5.2051   -2.0505 H         1 <0>         0.1168
     43 H15        -2.4742    3.9834    0.0859 H         1 <0>         0.1244
     44 H16         1.7862    3.7932    0.0055 H         1 <0>         0.1162
     45 H17         1.8057    5.0053   -2.1363 H         1 <0>         0.1187
     46 H18         0.8618    0.1719    0.1083 H         1 <0>         0.0769
     47 H19         1.4977    1.8441    0.2104 H         1 <0>         0.0742
     48 H20         0.3533    1.8136   -2.1255 H         1 <0>         0.1216
     49 H21        -2.1624    1.7988   -1.7469 H         1 <0>         0.1224
     50 H22        -4.3032    0.8092   -0.1435 H         1 <0>         0.1381
     51 H23        -6.0147    3.9199    2.2162 H         1 <0>         0.1399
     52 H24        -3.8073    4.5674    2.9662 H         1 <0>         0.1300
     53 H25        -1.4212    4.0010    3.0705 H         1 <0>         0.4078
     54 H26        -8.4127    0.6409    1.6897 H         1 <0>         0.4198
     55 H27        -6.8382    0.1351    1.9859 H         1 <0>         0.4162
@<TRIPOS>BOND
     1    1    2 1
     2    1   32 1
     3    1   33 1
     4    1   34 1
     5    2    3 1
     6    2   35 1
     7    2   36 1
     8    3    4 1
     9    3    6 1
    10    4    5 1
    11    4   37 1
    12    4   38 1
    13    5   39 1
    14    5   40 1
    15    5   41 1
    16    6   11 ar
    17    6    7 ar
    18    7    8 ar
    19    7   42 1
    20    8    9 ar
    21    8   43 1
    22    9   10 ar
    23    9   12 1
    24   10   11 ar
    25   10   44 1
    26   11   45 1
    27   12   13 1
    28   12   27 1
    29   12   14 1
    30   14   15 1
    31   14   19 1
    32   14   16 1
    33   16   17 1
    34   16   46 1
    35   16   47 1
    36   17   18 2
    37   17   48 1
    38   18   19 1
    39   18   49 1
    40   19   20 1
    41   19   21 1
    42   21   26 ar
    43   21   22 ar
    44   22   23 ar
    45   22   50 1
    46   23   24 ar
    47   23   28 1
    48   24   25 ar
    49   24   51 1
    50   25   26 ar
    51   25   52 1
    52   26   27 1
    53   27   53 1
    54   28   29 2
    55   28   30 2
    56   28   31 1
    57   31   54 1
    58   31   55 1
@<TRIPOS>MOLECULE
ZINC18066145
   55    58     0     0     0
SMALL
USER_CHARGES
(5R,7S)-3-chloro-N'-[2-(2,4-dimethylanilino)acetyl]adamantane-1-carbohydrazide
@<TRIPOS>ATOM
      1 C1          5.2509    7.2946   -0.0118 C.3       1 <0>        -0.1092
      2 C2          4.1190    6.2998   -0.0049 C.ar      1 <0>        -0.1421
      3 C3          4.3919    4.9440   -0.0138 C.ar      1 <0>        -0.0757
      4 C4          3.3570    4.0298   -0.0084 C.ar      1 <0>        -0.1979
      5 C5          2.0405    4.4733    0.0066 C.ar      1 <0>         0.2177
      6 C6          1.7699    5.8356    0.0107 C.ar      1 <0>        -0.1545
      7 C7          2.8099    6.7446    0.0100 C.ar      1 <0>        -0.0722
      8 C8          0.3434    6.3213    0.0207 C.3       1 <0>        -0.1101
      9 N1          0.9913    3.5513    0.0117 N.pl3     1 <0>        -0.7483
     10 C9          1.2785    2.1147    0.0012 C.3       1 <0>         0.1196
     11 C10        -0.0162    1.3436    0.0094 C.2       1 <0>         0.5146
     12 O1         -1.0746    1.9356    0.0177 O.2       1 <0>        -0.5422
     13 N2          0.0021   -0.0041    0.0020 N.am      1 <0>        -0.5304
     14 N3         -1.2016   -0.7210    0.0097 N.am      1 <0>        -0.5307
     15 C11        -1.1833   -2.0686    0.0022 C.2       1 <0>         0.5282
     16 O2         -0.1249   -2.6607   -0.0110 O.2       1 <0>        -0.5374
     17 C12        -2.4780   -2.8398    0.0105 C.3       1 <0>        -0.0542
     18 C13        -3.2733   -2.4879    1.2693 C.3       1 <0>        -0.1081
     19 C14        -4.5877   -3.2708    1.2776 C.3       1 <0>        -0.0819
     20 H1         -5.1595   -3.0177    2.1826 H         1 <0>         0.0878
     21 C15        -5.4068   -2.9054    0.0381 C.3       1 <0>        -0.1162
     22 C16        -4.6116   -3.2574   -1.2207 C.3       1 <0>        -0.0819
     23 H2         -5.2006   -2.9948   -2.1118 H         1 <0>         0.0878
     24 C17        -3.2971   -2.4744   -1.2291 C.3       1 <0>        -0.1081
     25 C18        -4.3116   -4.7577   -1.2316 C.3       1 <0>        -0.1150
     26 C19        -3.4925   -5.1230    0.0079 C.3       1 <0>         0.0368
     27 C20        -4.2878   -4.7711    1.2667 C.3       1 <0>        -0.1150
     28 C21        -2.1780   -4.3401   -0.0005 C.3       1 <0>        -0.0913
     29 Cl1        -3.1391   -6.8910   -0.0050 Cl        1 <0>        -0.1766
     30 H3          6.2109    6.7576   -0.0236 H         1 <0>         0.0613
     31 H4          5.1929    7.9222    0.8897 H         1 <0>         0.0637
     32 H5          5.1751    7.9300   -0.9065 H         1 <0>         0.0637
     33 H6          5.4155    4.5999   -0.0254 H         1 <0>         0.1193
     34 H7          3.5708    2.9712   -0.0161 H         1 <0>         0.1184
     35 H8          2.6003    7.8040    0.0170 H         1 <0>         0.1201
     36 H9          0.3306    7.4212    0.0227 H         1 <0>         0.0672
     37 H10        -0.1650    5.9470    0.9215 H         1 <0>         0.0639
     38 H11        -0.1766    5.9502   -0.8748 H         1 <0>         0.0640
     39 H12        -0.0506    3.9038    0.0236 H         1 <0>         0.4330
     40 H13         1.8503    1.8617   -0.9038 H         1 <0>         0.0937
     41 H14         1.8674    1.8520    0.8923 H         1 <0>         0.0936
     42 H15         0.9620   -0.5411   -0.0101 H         1 <0>         0.4611
     43 H16        -2.1615   -0.1840    0.0219 H         1 <0>         0.4565
     44 H17        -2.6844   -2.7506    2.1605 H         1 <0>         0.0755
     45 H18        -3.4889   -1.4093    1.2772 H         1 <0>         0.0738
     46 H19        -6.3519   -3.4683    0.0441 H         1 <0>         0.0723
     47 H20        -5.6224   -1.8268    0.0459 H         1 <0>         0.0717
     48 H21        -3.5127   -1.3958   -1.2212 H         1 <0>         0.0739
     49 H22        -2.7253   -2.7274   -2.1341 H         1 <0>         0.0755
     50 H23        -5.2566   -5.3206   -1.2256 H         1 <0>         0.0800
     51 H24        -3.7398   -5.0108   -2.1366 H         1 <0>         0.0776
     52 H25        -3.6989   -5.0338    2.1579 H         1 <0>         0.0776
     53 H26        -5.2328   -5.3340    1.2727 H         1 <0>         0.0800
     54 H27        -1.6063   -4.5931   -0.9056 H         1 <0>         0.0846
     55 H28        -1.5890   -4.6028    0.8906 H         1 <0>         0.0846
@<TRIPOS>BOND
     1    1    2 1
     2    1   30 1
     3    1   31 1
     4    1   32 1
     5    2    7 ar
     6    2    3 ar
     7    3    4 ar
     8    3   33 1
     9    4    5 ar
    10    4   34 1
    11    5    6 ar
    12    5    9 1
    13    6    7 ar
    14    6    8 1
    15    7   35 1
    16    8   36 1
    17    8   37 1
    18    8   38 1
    19    9   10 1
    20    9   39 1
    21   10   11 1
    22   10   40 1
    23   10   41 1
    24   11   12 2
    25   11   13 am
    26   13   14 1
    27   13   42 1
    28   14   15 am
    29   14   43 1
    30   15   16 2
    31   15   17 1
    32   17   24 1
    33   17   28 1
    34   17   18 1
    35   18   19 1
    36   18   44 1
    37   18   45 1
    38   19   20 1
    39   19   27 1
    40   19   21 1
    41   21   22 1
    42   21   46 1
    43   21   47 1
    44   22   23 1
    45   22   24 1
    46   22   25 1
    47   24   48 1
    48   24   49 1
    49   25   26 1
    50   25   50 1
    51   25   51 1
    52   26   27 1
    53   26   28 1
    54   26   29 1
    55   27   52 1
    56   27   53 1
    57   28   54 1
    58   28   55 1
@<TRIPOS>MOLECULE
ZINC45440188
   48    49     0     0     0
SMALL
USER_CHARGES

@<TRIPOS>ATOM
      1 C1         -0.0184    1.5028    0.0103 C.3       1 <0>        -0.1169
      2 C2          0.0021   -0.0041    0.0020 C.ar      1 <0>        -0.0880
      3 C3          0.0057   -0.6873   -1.2005 C.ar      1 <0>        -0.0995
      4 C4          0.0239   -2.0679   -1.2119 C.ar      1 <0>        -0.0918
      5 C5          0.0391   -2.7710   -0.0132 C.ar      1 <0>        -0.1084
      6 C6          0.0359   -2.0810    1.1932 C.ar      1 <0>        -0.1320
      7 C7          0.0229   -0.7003    1.1969 C.ar      1 <0>        -0.1007
      8 S1          0.0619   -4.5328   -0.0229 S.3       1 <0>        -0.0225
      9 C8          0.0766   -4.9812    1.7348 C.3       1 <0>        -0.1490
     10 C9          0.0967   -6.4819    1.8702 C.2       1 <0>         0.5367
     11 O1          0.1007   -7.1803    0.8786 O.2       1 <0>        -0.5034
     12 N1          0.1103   -7.0481    3.0932 N.am      1 <0>        -0.5269
     13 N2          0.1290   -8.4433    3.2191 N.am      1 <0>        -0.5288
     14 C10         0.1425   -9.0094    4.4421 C.2       1 <0>         0.7161
     15 O2          0.1587  -10.2202    4.5514 O.2       1 <0>        -0.5611
     16 N3          0.1381   -8.2333    5.5440 N.am      1 <0>        -0.7392
     17 C11         0.1529   -8.8487    6.8734 C.3       1 <0>         0.1690
     18 H1          0.7540   -9.7576    6.8464 H         1 <0>         0.1043
     19 C12        -1.2777   -9.1956    7.2907 C.3       1 <0>        -0.1378
     20 C13        -2.1214   -7.9199    7.3286 C.3       1 <0>        -0.1130
     21 C14        -1.5193   -6.9399    8.3376 C.3       1 <0>        -0.1221
     22 C15        -0.0887   -6.5930    7.9203 C.3       1 <0>        -0.1323
     23 H2         -0.0997   -6.1352    6.9311 H         1 <0>         0.1056
     24 C16         0.7550   -7.8688    7.8824 C.3       1 <0>        -0.1303
     25 C17         0.5134   -5.6131    8.9292 C.3       1 <0>         0.4536
     26 F1          0.5275   -6.2007   10.1987 F         1 <0>        -0.1789
     27 F2          1.8215   -5.2959    8.5476 F         1 <0>        -0.1827
     28 F3         -0.2581   -4.4466    8.9639 F         1 <0>        -0.1818
     29 H3          1.0042    1.8801    0.0026 H         1 <0>         0.0724
     30 H4         -0.5455    1.8639   -0.8728 H         1 <0>         0.0685
     31 H5         -0.5286    1.8543    0.9071 H         1 <0>         0.0674
     32 H6         -0.0061   -0.1403   -2.1316 H         1 <0>         0.1295
     33 H7          0.0260   -2.6008   -2.1513 H         1 <0>         0.1298
     34 H8          0.0477   -2.6241    2.1266 H         1 <0>         0.1205
     35 H9          0.0244   -0.1634    2.1339 H         1 <0>         0.1261
     36 H10         0.9637   -4.5616    2.2093 H         1 <0>         0.1244
     37 H11        -0.8161   -4.5846    2.2184 H         1 <0>         0.1243
     38 H12         0.1071   -6.4895    3.8862 H         1 <0>         0.4191
     39 H13         0.1321   -9.0018    2.4261 H         1 <0>         0.4461
     40 H14         0.1252   -7.2674    5.4569 H         1 <0>         0.3872
     41 H15        -1.7067   -9.8937    6.5719 H         1 <0>         0.0777
     42 H16        -1.2667   -9.6535    8.2798 H         1 <0>         0.0808
     43 H17        -2.1324   -7.4620    6.3395 H         1 <0>         0.0632
     44 H18        -3.1406   -8.1670    7.6259 H         1 <0>         0.0756
     45 H19        -2.1204   -6.0310    8.3646 H         1 <0>         0.0796
     46 H20        -1.5083   -7.3978    9.3267 H         1 <0>         0.0825
     47 H21         0.7660   -8.3266    8.8715 H         1 <0>         0.1002
     48 H22         1.7742   -7.6216    7.5851 H         1 <0>         0.0871
@<TRIPOS>BOND
     1    1    2 1
     2    1   29 1
     3    1   30 1
     4    1   31 1
     5    2    7 ar
     6    2    3 ar
     7    3    4 ar
     8    3   32 1
     9    4    5 ar
    10    4   33 1
    11    5    6 ar
    12    5    8 1
    13    6    7 ar
    14    6   34 1
    15    7   35 1
    16    8    9 1
    17    9   10 1
    18    9   36 1
    19    9   37 1
    20   10   11 2
    21   10   12 am
    22   12   13 1
    23   12   38 1
    24   13   14 am
    25   13   39 1
    26   14   15 2
    27   14   16 am
    28   16   17 1
    29   16   40 1
    30   17   18 1
    31   17   24 1
    32   17   19 1
    33   19   20 1
    34   19   41 1
    35   19   42 1
    36   20   21 1
    37   20   43 1
    38   20   44 1
    39   21   22 1
    40   21   45 1
    41   21   46 1
    42   22   23 1
    43   22   24 1
    44   22   25 1
    45   24   47 1
    46   24   48 1
    47   25   26 1
    48   25   27 1
    49   25   28 1
@<TRIPOS>MOLECULE
ZINC62512061
   51    53     0     0     0
SMALL
USER_CHARGES

@<TRIPOS>ATOM
      1 C1          0.1021    1.2508    0.7572 C.ar      1 <0>        -0.1147
      2 C2          1.3709    1.7885    0.8694 C.ar      1 <0>        -0.0789
      3 C3          2.2948    1.5959   -0.1403 C.ar      1 <0>        -0.0761
      4 C4          1.9504    0.8651   -1.2623 C.ar      1 <0>        -0.0761
      5 C5          0.6823    0.3268   -1.3741 C.ar      1 <0>        -0.1772
      6 C6         -0.2424    0.5207   -0.3647 C.ar      1 <0>        -0.0717
      7 C7          0.3066   -0.4689   -2.5975 C.3       1 <0>         0.5058
      8 F1          0.6069   -1.8188   -2.3861 F         1 <0>        -0.1749
      9 F2         -1.0637   -0.3287   -2.8423 F         1 <0>        -0.1760
     10 F3          1.0278    0.0022   -3.6998 F         1 <0>        -0.1764
     11 C8          3.6775    2.1828   -0.0185 C.3       1 <0>        -0.0330
     12 C9          4.3183    1.7526    1.3172 C.3       1 <0>        -0.1177
     13 C10         5.1174    2.9985    1.7738 C.3       1 <0>        -0.1251
     14 C11         4.1926    4.1691    1.3573 C.3       1 <0>        -0.1246
     15 C12         3.5975    3.7192    0.0070 C.3       1 <0>        -0.1106
     16 C13         4.5469    1.7226   -1.1903 C.3       1 <0>         0.1278
     17 N1          4.7256    0.2700   -1.1249 N.am      1 <0>        -0.7258
     18 C14         5.5460   -0.3480   -1.9975 C.2       1 <0>         0.5105
     19 O1          6.1363    0.2984   -2.8369 O.2       1 <0>        -0.5322
     20 C15         5.7299   -1.8422   -1.9301 C.3       1 <0>         0.1192
     21 N2          6.6630   -2.2671   -2.9765 N.am      1 <0>        -0.7350
     22 C16         6.9805   -3.5703   -3.1078 C.2       1 <0>         0.7123
     23 O2          6.4924   -4.3935   -2.3577 O.2       1 <0>        -0.5875
     24 N3          7.8389   -3.9612   -4.0705 N.am      1 <0>        -0.7151
     25 C17         8.1840   -5.3778   -4.2131 C.3       1 <0>         0.0985
     26 C18         9.6555   -5.7266   -4.4450 C.3       1 <0>        -0.1947
     27 C19         8.6490   -5.8565   -5.5899 C.3       1 <0>        -0.1901
     28 H1         -0.6185    1.3975    1.5482 H         1 <0>         0.1370
     29 H2          1.6399    2.3593    1.7458 H         1 <0>         0.1342
     30 H3          2.6721    0.7152   -2.0516 H         1 <0>         0.1401
     31 H4         -1.2335    0.1007   -0.4523 H         1 <0>         0.1364
     32 H5          3.5481    1.5047    2.0475 H         1 <0>         0.0763
     33 H6          4.9870    0.9056    1.1641 H         1 <0>         0.0733
     34 H7          5.2651    2.9882    2.8536 H         1 <0>         0.0710
     35 H8          6.0729    3.0568    1.2526 H         1 <0>         0.0696
     36 H9          3.4020    4.3115    2.0941 H         1 <0>         0.0679
     37 H10         4.7695    5.0856    1.2335 H         1 <0>         0.0703
     38 H11         4.1788    4.1371   -0.8150 H         1 <0>         0.0748
     39 H12         2.5586    4.0404   -0.0687 H         1 <0>         0.0738
     40 H13         4.0605    1.9868   -2.1293 H         1 <0>         0.0743
     41 H14         5.5196    2.2112   -1.1349 H         1 <0>         0.0829
     42 H15         4.2535   -0.2470   -0.4535 H         1 <0>         0.4057
     43 H16         6.1301   -2.1154   -0.9537 H         1 <0>         0.1005
     44 H17         4.7685   -2.3337   -2.0792 H         1 <0>         0.1002
     45 H18         7.0524   -1.6104   -3.5749 H         1 <0>         0.4085
     46 H19         8.2283   -3.3045   -4.6689 H         1 <0>         0.3994
     47 H20         7.5910   -6.0688   -3.6139 H         1 <0>         0.1404
     48 H21        10.3669   -4.9021   -4.4913 H         1 <0>         0.0968
     49 H22        10.0310   -6.6472   -3.9981 H         1 <0>         0.1037
     50 H23         8.3623   -6.8625   -5.8963 H         1 <0>         0.1052
     51 H24         8.6982   -5.1174   -6.3895 H         1 <0>         0.0973
@<TRIPOS>BOND
     1    1    6 ar
     2    1    2 ar
     3    1   28 1
     4    2    3 ar
     5    2   29 1
     6    3    4 ar
     7    3   11 1
     8    4    5 ar
     9    4   30 1
    10    5    6 ar
    11    5    7 1
    12    6   31 1
    13    7    8 1
    14    7    9 1
    15    7   10 1
    16   11   15 1
    17   11   12 1
    18   11   16 1
    19   12   13 1
    20   12   32 1
    21   12   33 1
    22   13   14 1
    23   13   34 1
    24   13   35 1
    25   14   15 1
    26   14   36 1
    27   14   37 1
    28   15   38 1
    29   15   39 1
    30   16   17 1
    31   16   40 1
    32   16   41 1
    33   17   18 am
    34   17   42 1
    35   18   19 2
    36   18   20 1
    37   20   21 1
    38   20   43 1
    39   20   44 1
    40   21   22 am
    41   21   45 1
    42   22   23 2
    43   22   24 am
    44   24   25 1
    45   24   46 1
    46   25   27 1
    47   25   26 1
    48   25   47 1
    49   26   27 1
    50   26   48 1
    51   26   49 1
    52   27   50 1
    53   27   51 1
@<TRIPOS>MOLECULE
ZINC67149216
   41    43     0     0     0
SMALL
USER_CHARGES

@<TRIPOS>ATOM
      1 C1          1.8655    0.7766   -0.4547 C.3       1 <0>        -0.1156
      2 C2          0.8939   -0.3513   -0.2202 C.ar      1 <0>        -0.0812
      3 C3         -0.0247   -0.6864   -1.1983 C.ar      1 <0>        -0.1058
      4 C4         -0.9178   -1.7205   -0.9871 C.ar      1 <0>        -0.1106
      5 C5         -0.8952   -2.4224    0.2024 C.ar      1 <0>        -0.0724
      6 C6          0.0258   -2.0884    1.1865 C.ar      1 <0>         0.1229
      7 C7          0.9254   -1.0527    0.9689 C.ar      1 <0>        -0.0859
      8 C8          1.9310   -0.6912    2.0315 C.3       1 <0>        -0.1210
      9 N1          0.0513   -2.7973    2.3922 N.pl3     1 <0>        -0.6288
     10 C9         -0.0322   -4.1425    2.3850 C.2       1 <0>         0.5526
     11 S1         -0.0279   -4.9924    0.8989 S.2       1 <0>        -0.5512
     12 N2         -0.1191   -4.8185    3.5477 N.pl3     1 <0>        -0.4600
     13 N3         -0.1226   -4.1229    4.7639 N.am      1 <0>        -0.5465
     14 C10        -0.2095   -4.7990    5.9266 C.2       1 <0>         0.6259
     15 O1         -0.2849   -6.0140    5.9201 O.2       1 <0>        -0.4973
     16 C11        -0.2132   -4.0722    7.1973 C.2       1 <0>        -0.2707
     17 C12        -0.2878   -4.5573    8.4973 C.2       1 <0>         0.1523
     18 N4         -0.2750   -3.7158    9.4921 N.2       1 <0>        -0.5004
     19 C13        -0.1920   -2.4010    9.2923 C.2       1 <0>         0.2387
     20 S2         -0.1150   -2.3136    7.5082 S.3       1 <0>         0.0650
     21 C14        -0.1646   -1.3120   10.2773 C.2       1 <0>        -0.1388
     22 C15        -0.2122   -1.3835   11.6585 C.2       1 <0>        -0.0641
     23 C16        -0.1718   -0.2118   12.3756 C.2       1 <0>        -0.1698
     24 C17        -0.0872    0.9719   11.7120 C.2       1 <0>        -0.1347
     25 S3         -0.0534    0.4491   10.0055 S.3       1 <0>         0.1105
     26 H1          2.7704    0.3858   -0.9200 H         1 <0>         0.0724
     27 H2          1.4101    1.5177   -1.1116 H         1 <0>         0.0691
     28 H3          2.1186    1.2421    0.4978 H         1 <0>         0.0678
     29 H4         -0.0446   -0.1389   -2.1290 H         1 <0>         0.1262
     30 H5         -1.6341   -1.9795   -1.7527 H         1 <0>         0.1300
     31 H6         -1.5933   -3.2298    0.3670 H         1 <0>         0.1391
     32 H7          1.5032    0.0589    2.6965 H         1 <0>         0.0726
     33 H8          2.1887   -1.5812    2.6056 H         1 <0>         0.0588
     34 H9          2.8286   -0.2900    1.5608 H         1 <0>         0.0793
     35 H10         0.1291   -2.3207    3.2335 H         1 <0>         0.3980
     36 H11        -0.1792   -5.7866    3.5425 H         1 <0>         0.4631
     37 H12        -0.0625   -3.1548    4.7691 H         1 <0>         0.4187
     38 H13        -0.3559   -5.6194    8.6810 H         1 <0>         0.1918
     39 H14        -0.2797   -2.3372   12.1609 H         1 <0>         0.1509
     40 H15        -0.2074   -0.2310   13.4548 H         1 <0>         0.1499
     41 H16        -0.0461    1.9731   12.1149 H         1 <0>         0.1993
@<TRIPOS>BOND
     1    1    2 1
     2    1   26 1
     3    1   27 1
     4    1   28 1
     5    2    7 ar
     6    2    3 ar
     7    3    4 ar
     8    3   29 1
     9    4    5 ar
    10    4   30 1
    11    5    6 ar
    12    5   31 1
    13    6    7 ar
    14    6    9 1
    15    7    8 1
    16    8   32 1
    17    8   33 1
    18    8   34 1
    19    9   10 1
    20    9   35 1
    21   10   11 2
    22   10   12 1
    23   12   13 1
    24   12   36 1
    25   13   14 am
    26   13   37 1
    27   14   15 2
    28   14   16 1
    29   16   20 1
    30   16   17 2
    31   17   18 1
    32   17   38 1
    33   18   19 2
    34   19   20 1
    35   19   21 1
    36   21   25 1
    37   21   22 2
    38   22   23 1
    39   22   39 1
    40   23   24 2
    41   23   40 1
    42   24   25 1
    43   24   41 1
@<TRIPOS>MOLECULE
ZINC13184596
   48    49     0     0     0
SMALL
USER_CHARGES
3,4-dimethyl-5-[2-[[2-nitro-4-(trifluoromethyl)phenyl]amino]ethylsulfamoyl]benzoic acid
@<TRIPOS>ATOM
      1 C1         -1.3693    1.5585    0.4091 C.3       1 <0>        -0.1106
      2 C2         -2.5794    2.0025   -0.3717 C.ar      1 <0>        -0.1273
      3 C3         -2.4899    3.0837   -1.2240 C.ar      1 <0>        -0.0150
      4 C4         -3.6133    3.4968   -1.9426 C.ar      1 <0>        -0.1313
      5 C5         -4.8179    2.8044   -1.8017 C.ar      1 <0>         0.0104
      6 C6         -4.8918    1.7217   -0.9505 C.ar      1 <0>        -0.6910
      7 C7         -3.7758    1.3211   -0.2369 C.ar      1 <0>         0.0051
      8 C8         -3.8644    0.1374    0.6916 C.3       1 <0>        -0.1328
      9 S1         -6.4108    0.8470   -0.7708 S.o2      1 <0>         2.7005
     10 O1         -7.3624    1.5133   -1.5891 O.2       1 <0>        -0.9545
     11 O2         -6.1059   -0.5323   -0.9255 O.2       1 <0>        -0.9570
     12 N1         -6.9096    1.0487    0.7953 N.pl3     1 <0>        -1.1172
     13 C9         -7.2349    2.3873    1.2938 C.3       1 <0>         0.1030
     14 C10        -8.0032    2.2680    2.6116 C.3       1 <0>         0.1067
     15 N2         -8.3285    3.6066    3.1101 N.pl3     1 <0>        -0.7132
     16 C11        -9.0329    3.7539    4.3072 C.ar      1 <0>         0.3083
     17 C12        -9.3686    2.6353    5.0597 C.ar      1 <0>        -0.1951
     18 C13       -10.0650    2.7845    6.2426 C.ar      1 <0>         0.0194
     19 C14       -10.4283    4.0458    6.6787 C.ar      1 <0>        -0.2457
     20 C15       -10.0958    5.1611    5.9323 C.ar      1 <0>         0.0420
     21 C16        -9.3943    5.0195    4.7509 C.ar      1 <0>        -0.1216
     22 N3         -9.0335    6.2144    3.9556 N.pl3     1 <0>         0.0341
     23 O3         -7.9565    6.2665    3.3891 O.2       1 <0>        -0.1678
     24 O4         -9.8135    7.1457    3.8677 O.3       1 <0>        -0.1374
     25 C17       -11.1879    4.2048    7.9705 C.3       1 <0>         0.5202
     26 F1        -11.4058    2.9462    8.5412 F         1 <0>        -0.1743
     27 F2        -10.4451    4.9952    8.8540 F         1 <0>        -0.1748
     28 F3        -12.4180    4.8205    7.7155 F         1 <0>        -0.1734
     29 C18        -3.5267    4.6574   -2.8524 C.2       1 <0>         0.4895
     30 O5         -4.5045    5.0115   -3.4800 O.co2     1 <0>        -0.6229
     31 H1         -0.8090    0.8274   -0.1737 H         1 <0>         0.0689
     32 H2         -0.7351    2.4202    0.6174 H         1 <0>         0.0674
     33 H3         -1.6885    1.1068    1.3483 H         1 <0>         0.0665
     34 H4         -1.5540    3.6118   -1.3320 H         1 <0>         0.1398
     35 H5         -5.6896    3.1163   -2.3578 H         1 <0>         0.1480
     36 H6         -3.5241   -0.7583    0.1720 H         1 <0>         0.0898
     37 H7         -3.2352    0.3123    1.5643 H         1 <0>         0.0814
     38 H8         -4.8980    0.0020    1.0102 H         1 <0>         0.0566
     39 H9         -6.9864    0.2805    1.3826 H         1 <0>         0.4173
     40 H10        -6.3144    2.9470    1.4594 H         1 <0>         0.0834
     41 H11        -7.8502    2.9085    0.5605 H         1 <0>         0.0931
     42 H12        -8.9237    1.7083    2.4461 H         1 <0>         0.0847
     43 H13        -7.3879    1.7468    3.3450 H         1 <0>         0.0850
     44 H14        -8.0548    4.3906    2.6088 H         1 <0>         0.4209
     45 H15        -9.0849    1.6502    4.7199 H         1 <0>         0.1577
     46 H16       -10.3260    1.9154    6.8282 H         1 <0>         0.1563
     47 H17       -10.3808    6.1446    6.2758 H         1 <0>         0.1570
     48 O6         -2.3647    5.3266   -2.9817 O.co2     1 <0>        -0.7498
@<TRIPOS>BOND
     1    1    2 1
     2    1   31 1
     3    1   32 1
     4    1   33 1
     5    2    7 ar
     6    2    3 ar
     7    3    4 ar
     8    3   34 1
     9    4    5 ar
    10    4   29 1
    11    5    6 ar
    12    5   35 1
    13    6    7 ar
    14    6    9 1
    15    7    8 1
    16    8   36 1
    17    8   37 1
    18    8   38 1
    19    9   10 2
    20    9   11 2
    21    9   12 1
    22   12   13 1
    23   12   39 1
    24   13   14 1
    25   13   40 1
    26   13   41 1
    27   14   15 1
    28   14   42 1
    29   14   43 1
    30   15   16 1
    31   15   44 1
    32   16   21 ar
    33   16   17 ar
    34   17   18 ar
    35   17   45 1
    36   18   19 ar
    37   18   46 1
    38   19   20 ar
    39   19   25 1
    40   20   21 ar
    41   20   47 1
    42   21   22 1
    43   22   23 2
    44   22   24 1
    45   25   26 1
    46   25   27 1
    47   25   28 1
    48   29   30 2
    49   29   48 1
@<TRIPOS>MOLECULE
ZINC15230718
   59    60     0     0     0
SMALL
USER_CHARGES
(1S,6R)-6-(4-bromophenyl)-1-[[(3-ethoxy-2-ethoxycarbonyl-3-oxo-prop-1-enyl)amino]carbamoyl]-4-methyl-cyclohex-3-ene-1-carboxylic acid
@<TRIPOS>ATOM
      1 C1         -6.1802   -0.7837    0.6263 C.3       1 <0>        -0.1486
      2 C2         -5.0125    0.2010    0.7144 C.3       1 <0>         0.0603
      3 O1         -4.1649    0.0526   -0.4552 O.3       1 <0>        -0.3310
      4 C3         -3.0830    0.8536   -0.5328 C.2       1 <0>         0.5324
      5 O2         -2.8546    1.6543    0.3534 O.2       1 <0>        -0.5478
      6 C4         -2.1819    0.7591   -1.6860 C.2       1 <0>        -0.3848
      7 C5         -1.0085    1.4881   -1.7073 C.2       1 <0>         0.3240
      8 N1         -0.6045    2.1478   -0.6029 N.pl3     1 <0>        -0.4356
      9 N2          0.6230    2.8231   -0.6000 N.am      1 <0>        -0.5278
     10 C6          1.0268    3.4824    0.5039 C.2       1 <0>         0.5525
     11 O3          0.3276    3.4912    1.4948 O.2       1 <0>        -0.5265
     12 C7          2.3472    4.2088    0.5070 C.3       1 <0>        -0.1009
     13 C8          3.1513    3.8092    1.7460 C.3       1 <0>        -0.0513
     14 C9          2.5190    4.3834    2.9799 C.2       1 <0>        -0.1547
     15 C10         1.6581    5.3500    2.9710 C.2       1 <0>        -0.1070
     16 C11         1.1643    6.0246    1.7248 C.3       1 <0>        -0.0790
     17 C12         2.1029    5.7224    0.5546 C.3       1 <0>        -0.0202
     18 H1          3.0498    6.2420    0.7009 H         1 <0>         0.0961
     19 C13         1.4665    6.1737   -0.7348 C.ar      1 <0>        -0.0274
     20 C14         2.1514    7.0239   -1.5829 C.ar      1 <0>        -0.0553
     21 C15         1.5700    7.4342   -2.7678 C.ar      1 <0>        -0.0938
     22 C16         0.2986    7.0023   -3.1001 C.ar      1 <0>        -0.0947
     23 C17        -0.3884    6.1558   -2.2487 C.ar      1 <0>        -0.0944
     24 C18         0.1958    5.7419   -1.0664 C.ar      1 <0>        -0.1269
     25 Br1        -0.5004    7.5696   -4.7174 Br        1 <0>        -0.0706
     26 C19         1.1184    5.8278    4.2944 C.3       1 <0>        -0.1140
     27 C20         3.1204    3.8595   -0.7385 C.2       1 <0>         0.4592
     28 O4          3.4384    4.7282   -1.5157 O.co2     1 <0>        -0.5989
     29 C21        -2.5262   -0.1093   -2.8165 C.2       1 <0>         0.5417
     30 O5         -1.7790   -0.1876   -3.7727 O.2       1 <0>        -0.5383
     31 O6         -3.6714   -0.8208   -2.7957 O.3       1 <0>        -0.3387
     32 C22        -3.9477   -1.6591   -3.9487 C.3       1 <0>         0.0628
     33 C23        -5.2798   -2.3835   -3.7451 C.3       1 <0>        -0.1488
     34 H2         -6.8164   -0.6724    1.5043 H         1 <0>         0.0746
     35 H3         -6.7618   -0.5782   -0.2723 H         1 <0>         0.0657
     36 H4         -5.7941   -1.8022    0.5842 H         1 <0>         0.0653
     37 H5         -4.4309   -0.0046    1.6130 H         1 <0>         0.0664
     38 H6         -5.3985    1.2195    0.7565 H         1 <0>         0.0664
     39 H7         -0.4149    1.5297   -2.6085 H         1 <0>         0.1829
     40 H8         -1.1656    2.1581    0.1883 H         1 <0>         0.4498
     41 H9          1.1822    2.8161   -1.3926 H         1 <0>         0.4400
     42 H10         3.1765    2.7223    1.8253 H         1 <0>         0.0789
     43 H11         4.1697    4.1863    1.6529 H         1 <0>         0.0829
     44 H12         2.8001    3.9644    3.9348 H         1 <0>         0.1009
     45 H13         1.1255    7.1016    1.8881 H         1 <0>         0.0691
     46 H14         0.1642    5.6608    1.4890 H         1 <0>         0.0822
     47 H15         3.1424    7.3643   -1.3214 H         1 <0>         0.1294
     48 H16         2.1066    8.0953   -3.4321 H         1 <0>         0.1266
     49 H17        -1.3809    5.8182   -2.5078 H         1 <0>         0.1231
     50 H18        -0.3403    5.0807   -0.4018 H         1 <0>         0.1194
     51 H19         0.2226    5.2608    4.5476 H         1 <0>         0.0625
     52 H20         1.8719    5.6813    5.0683 H         1 <0>         0.0569
     53 H21         0.8704    6.8869    4.2246 H         1 <0>         0.0559
     54 H22        -4.0043   -1.0391   -4.8434 H         1 <0>         0.0657
     55 H23        -3.1494   -2.3922   -4.0645 H         1 <0>         0.0660
     56 H24        -5.2233   -3.0034   -2.8503 H         1 <0>         0.0650
     57 H25        -6.0781   -1.6504   -3.6292 H         1 <0>         0.0644
     58 H26        -5.4872   -3.0128   -4.6106 H         1 <0>         0.0742
     59 O7          3.4558    2.5832   -0.9843 O.co2     1 <0>        -0.7462
@<TRIPOS>BOND
     1    1    2 1
     2    1   34 1
     3    1   35 1
     4    1   36 1
     5    2    3 1
     6    2   37 1
     7    2   38 1
     8    3    4 1
     9    4    5 2
    10    4    6 1
    11    6    7 2
    12    6   29 1
    13    7    8 1
    14    7   39 1
    15    8    9 1
    16    8   40 1
    17    9   10 am
    18    9   41 1
    19   10   11 2
    20   10   12 1
    21   12   17 1
    22   12   13 1
    23   12   27 1
    24   13   14 1
    25   13   42 1
    26   13   43 1
    27   14   15 2
    28   14   44 1
    29   15   16 1
    30   15   26 1
    31   16   17 1
    32   16   45 1
    33   16   46 1
    34   17   18 1
    35   17   19 1
    36   19   24 ar
    37   19   20 ar
    38   20   21 ar
    39   20   47 1
    40   21   22 ar
    41   21   48 1
    42   22   23 ar
    43   22   25 1
    44   23   24 ar
    45   23   49 1
    46   24   50 1
    47   26   51 1
    48   26   52 1
    49   26   53 1
    50   27   28 2
    51   27   59 1
    52   29   30 2
    53   29   31 1
    54   31   32 1
    55   32   33 1
    56   32   54 1
    57   32   55 1
    58   33   56 1
    59   33   57 1
    60   33   58 1
@<TRIPOS>MOLECULE
ZINC33851866
   71    74     0     0     0
SMALL
USER_CHARGES

@<TRIPOS>ATOM
      1 C1         -0.0184    1.5028    0.0103 C.3       1 <0>        -0.1582
      2 C2          0.0021   -0.0041    0.0020 C.2       1 <0>         0.3261
      3 C3          0.0230   -0.7048    1.2008 C.2       1 <0>        -0.4738
      4 C4          0.0498   -2.1808    1.2552 C.2       1 <0>         0.4212
      5 O1         -0.5936   -2.8599    0.4817 O.2       1 <0>        -0.4837
      6 C5          0.9224   -2.8034    2.3262 C.3       1 <0>        -0.1547
      7 C6          0.6065   -2.1406    3.6698 C.3       1 <0>        -0.0485
      8 C7          0.8923   -0.6384    3.5923 C.3       1 <0>        -0.1541
      9 C8          0.0262   -0.0282    2.5140 C.2       1 <0>         0.4351
     10 O2         -0.6356    0.9683    2.7202 O.2       1 <0>        -0.4791
     11 C9          1.4756   -2.7672    4.7620 C.3       1 <0>        -0.1410
     12 C10        -0.8691   -2.3599    4.0098 C.3       1 <0>        -0.1521
     13 N1          0.0001   -0.6703   -1.1665 N.pl3     1 <0>        -0.6770
     14 C11        -0.0220    0.0690   -2.4311 C.3       1 <0>         0.0971
     15 C12        -0.0196   -0.9189   -3.5994 C.3       1 <0>        -0.1330
     16 C13        -0.0426   -0.1469   -4.9201 C.3       1 <0>        -0.1055
     17 C14        -0.0402   -1.1348   -6.0885 C.3       1 <0>         0.0934
     18 H1          0.8118   -1.8080   -5.9933 H         1 <0>         0.0863
     19 C15         0.0610   -0.3768   -7.3870 C.2       1 <0>         0.4902
     20 O3          1.1552   -0.1261   -7.8629 O.co2     1 <0>        -0.6903
     21 O4         -0.9513   -0.0142   -7.9618 O.co2     1 <0>        -0.6857
     22 N2         -1.2815   -1.9128   -6.0726 N.am      1 <0>        -0.6731
     23 C16        -1.3180   -3.1350   -6.6395 C.2       1 <0>         0.6469
     24 O5         -0.3214   -3.5916   -7.1637 O.2       1 <0>        -0.5728
     25 O6         -2.4587   -3.8500   -6.6250 O.3       1 <0>        -0.3687
     26 C17        -2.4254   -5.1374   -7.2443 C.3       1 <0>         0.1077
     27 C18        -3.8023   -5.7945   -7.1293 C.3       1 <0>        -0.0079
     28 C19        -4.8035   -5.0557   -7.9832 C.ar      1 <0>        -0.0797
     29 C20        -5.2576   -3.7542   -7.9605 C.ar      1 <0>        -0.0829
     30 C21        -6.2007   -3.3334   -8.8815 C.ar      1 <0>        -0.1101
     31 C22        -6.6895   -4.2171   -9.8266 C.ar      1 <0>        -0.1199
     32 C23        -6.2407   -5.5212   -9.8567 C.ar      1 <0>        -0.0987
     33 C24        -5.2894   -5.9527   -8.9306 C.ar      1 <0>        -0.0639
     34 C25        -4.6427   -7.2742   -8.7373 C.ar      1 <0>        -0.0455
     35 C26        -3.7526   -7.2028   -7.6691 C.ar      1 <0>        -0.0849
     36 C27        -3.0267   -8.3131   -7.2932 C.ar      1 <0>        -0.0942
     37 C28        -3.1802   -9.5055   -7.9783 C.ar      1 <0>        -0.1154
     38 C29        -4.0617   -9.5862   -9.0412 C.ar      1 <0>        -0.1169
     39 C30        -4.7924   -8.4805   -9.4237 C.ar      1 <0>        -0.0989
     40 H2          1.0042    1.8801    0.0026 H         1 <0>         0.0914
     41 H3          0.7169   -3.8720    2.3891 H         1 <0>         0.0881
     42 H4          1.9722   -2.6456    2.0792 H         1 <0>         0.0991
     43 H5          0.6655   -0.1736    4.5519 H         1 <0>         0.0890
     44 H6          1.9421   -0.4787    3.3464 H         1 <0>         0.0994
     45 H7          2.5277   -2.6167    4.5202 H         1 <0>         0.0598
     46 H8          1.2518   -2.2963    5.7192 H         1 <0>         0.0604
     47 H9          1.2664   -3.8351    4.8247 H         1 <0>         0.0601
     48 H10        -1.0720   -3.4289    4.0745 H         1 <0>         0.0618
     49 H11        -1.0955   -1.8885    4.9661 H         1 <0>         0.0622
     50 H12        -1.4909   -1.9185    3.2309 H         1 <0>         0.0555
     51 H13        -0.5455    1.8639   -0.8728 H         1 <0>         0.0843
     52 H14        -0.9209    0.6837   -2.4770 H         1 <0>         0.0803
     53 H15         0.8588    0.7080   -2.4938 H         1 <0>         0.0795
     54 H16         0.8793   -1.5337   -3.5536 H         1 <0>         0.0722
     55 H17        -0.9004   -1.5579   -3.5367 H         1 <0>         0.0730
     56 H18        -0.9415    0.4679   -4.9660 H         1 <0>         0.0730
     57 H19         0.8382    0.4921   -4.9829 H         1 <0>         0.0855
     58 H20        -2.0770   -1.5483   -5.6542 H         1 <0>         0.3983
     59 H21        -2.1618   -5.0278   -8.2963 H         1 <0>         0.0706
     60 H22        -1.6826   -5.7609   -6.7467 H         1 <0>         0.0720
     61 H23        -4.1282   -5.8025   -6.0892 H         1 <0>         0.1127
     62 H24        -4.8774   -3.0627   -7.2231 H         1 <0>         0.1320
     63 H25        -6.5557   -2.3136   -8.8622 H         1 <0>         0.1285
     64 H26        -7.4258   -3.8850  -10.5436 H         1 <0>         0.1251
     65 H27        -6.6253   -6.2080  -10.5961 H         1 <0>         0.1205
     66 H28        -2.3377   -8.2520   -6.4638 H         1 <0>         0.1269
     67 H29        -2.6107  -10.3743   -7.6829 H         1 <0>         0.1275
     68 H30        -4.1782  -10.5185   -9.5738 H         1 <0>         0.1258
     69 H31        -5.4796   -8.5478  -10.2542 H         1 <0>         0.1228
     70 H32        -0.5286    1.8543    0.9071 H         1 <0>         0.1144
     71 H33         0.0132   -1.6402   -1.1718 H         1 <0>         0.4150
@<TRIPOS>BOND
     1    1    2 1
     2    1   40 1
     3    1   51 1
     4    1   70 1
     5    2    3 2
     6    2   13 1
     7    3    9 1
     8    3    4 1
     9    4    5 2
    10    4    6 1
    11    6    7 1
    12    6   41 1
    13    6   42 1
    14    7    8 1
    15    7   11 1
    16    7   12 1
    17    8    9 1
    18    8   43 1
    19    8   44 1
    20    9   10 2
    21   11   45 1
    22   11   46 1
    23   11   47 1
    24   12   48 1
    25   12   49 1
    26   12   50 1
    27   13   14 1
    28   13   71 1
    29   14   15 1
    30   14   52 1
    31   14   53 1
    32   15   16 1
    33   15   54 1
    34   15   55 1
    35   16   17 1
    36   16   56 1
    37   16   57 1
    38   17   18 1
    39   17   19 1
    40   17   22 1
    41   19   20 2
    42   19   21 1
    43   22   23 am
    44   22   58 1
    45   23   24 2
    46   23   25 1
    47   25   26 1
    48   26   27 1
    49   26   59 1
    50   26   60 1
    51   27   35 1
    52   27   28 1
    53   27   61 1
    54   28   33 ar
    55   28   29 ar
    56   29   30 ar
    57   29   62 1
    58   30   31 ar
    59   30   63 1
    60   31   32 ar
    61   31   64 1
    62   32   33 ar
    63   32   65 1
    64   33   34 1
    65   34   39 ar
    66   34   35 ar
    67   35   36 ar
    68   36   37 ar
    69   36   66 1
    70   37   38 ar
    71   37   67 1
    72   38   39 ar
    73   38   68 1
    74   39   69 1
@<TRIPOS>MOLECULE
ZINC13416810
   55    58     0     0     0
SMALL
USER_CHARGES

@<TRIPOS>ATOM
      1 C1          0.9361    1.4350   -0.0316 C.3       1 <0>        -0.1109
      2 C2          0.7029   -0.0539   -0.0288 C.ar      1 <0>        -0.1095
      3 C3          0.7990   -0.7696   -1.2084 C.ar      1 <0>        -0.0914
      4 C4          0.5859   -2.1338   -1.2094 C.ar      1 <0>        -0.1470
      5 C5          0.2747   -2.7876   -0.0235 C.ar      1 <0>         0.1589
      6 C6          0.1790   -2.0657    1.1595 C.ar      1 <0>        -0.1219
      7 C7          0.3989   -0.7021    1.1542 C.ar      1 <0>        -0.0936
      8 C8         -0.1588   -2.7703    2.4480 C.3       1 <0>        -0.1145
      9 N1          0.0581   -4.1678   -0.0209 N.pl3     1 <0>        -0.6024
     10 C9         -0.0436   -4.8578   -1.2238 C.2       1 <0>         0.3227
     11 N2         -0.0688   -4.3894   -2.4562 N.2       1 <0>        -0.3499
     12 N3         -0.1756   -5.2587   -3.5171 N.2       1 <0>        -0.2871
     13 C10        -0.2523   -6.5573   -3.2963 C.2       1 <0>         0.0441
     14 S1         -0.1672   -6.6162   -1.5130 S.3       1 <0>         0.0097
     15 S2         -0.3938   -7.8800   -4.4517 S.3       1 <0>         0.1360
     16 C11        -0.4118   -7.0527   -6.0659 C.3       1 <0>        -0.1525
     17 C12        -0.5308   -8.0844   -7.1579 C.2       1 <0>         0.5311
     18 O1         -0.5970   -9.2619   -6.8750 O.2       1 <0>        -0.5346
     19 N4         -0.5637   -7.6985   -8.4488 N.am      1 <0>        -0.6765
     20 C13        -0.6794   -8.7015   -9.5104 C.3       1 <0>         0.0863
     21 H1         -1.3103   -9.5218   -9.1680 H         1 <0>         0.0841
     22 C14        -1.3045   -8.0609  -10.7513 C.3       1 <0>        -0.0416
     23 C15        -2.7189   -7.6426  -10.4421 C.2       1 <0>        -0.1519
     24 C16        -3.8321   -8.3543  -10.6795 C.2       1 <0>         0.0459
     25 N5         -4.9315   -7.6529  -10.2655 N.pl3     1 <0>        -0.5975
     26 H2         -5.8482   -7.9627  -10.3333 H         1 <0>         0.4124
     27 C17        -4.5429   -6.4417   -9.7382 C.ar      1 <0>         0.0942
     28 C18        -3.1393   -6.3848   -9.8199 C.ar      1 <0>        -0.0944
     29 C19        -2.4592   -5.2606   -9.3487 C.ar      1 <0>        -0.0709
     30 C20        -3.1611   -4.2209   -8.8064 C.ar      1 <0>        -0.1486
     31 C21        -4.5453   -4.2739   -8.7197 C.ar      1 <0>        -0.1029
     32 C22        -5.2373   -5.3700   -9.1871 C.ar      1 <0>        -0.1330
     33 C23         0.6895   -9.2300   -9.8535 C.2       1 <0>         0.4917
     34 O2          0.8180  -10.3731  -10.2577 O.co2     1 <0>        -0.6915
     35 O3          1.6686   -8.5146   -9.7269 O.co2     1 <0>        -0.6886
     36 H3          1.9934    1.6375    0.1392 H         1 <0>         0.0680
     37 H4          0.6382    1.8475   -0.9956 H         1 <0>         0.0657
     38 H5          0.3453    1.8968    0.7594 H         1 <0>         0.0636
     39 H6          1.0406   -0.2607   -2.1299 H         1 <0>         0.1262
     40 H7          0.6608   -2.6920   -2.1310 H         1 <0>         0.1662
     41 H8          0.3290   -0.1409    2.0742 H         1 <0>         0.1254
     42 H9          0.7600   -3.0969    2.9352 H         1 <0>         0.0719
     43 H10        -0.6958   -2.0870    3.1059 H         1 <0>         0.0738
     44 H11        -0.7848   -3.6368    2.2350 H         1 <0>         0.0594
     45 H12        -0.0214   -4.6447    0.8200 H         1 <0>         0.4277
     46 H13        -1.2612   -6.3714   -6.1156 H         1 <0>         0.1230
     47 H14         0.5130   -6.4905   -6.1964 H         1 <0>         0.1263
     48 H15        -0.5107   -6.7568   -8.6751 H         1 <0>         0.3929
     49 H16        -0.7221   -7.1864  -11.0412 H         1 <0>         0.0740
     50 H17        -1.3093   -8.7817  -11.5689 H         1 <0>         0.0867
     51 H18        -3.8563   -9.3352  -11.1307 H         1 <0>         0.1705
     52 H19        -1.3822   -5.2127   -9.4122 H         1 <0>         0.1193
     53 H20        -2.6345   -3.3513   -8.4420 H         1 <0>         0.1205
     54 H21        -5.0860   -3.4447   -8.2879 H         1 <0>         0.1203
     55 H22        -6.3143   -5.4023   -9.1141 H         1 <0>         0.1147
@<TRIPOS>BOND
     1    1    2 1
     2    1   36 1
     3    1   37 1
     4    1   38 1
     5    2    7 ar
     6    2    3 ar
     7    3    4 ar
     8    3   39 1
     9    4    5 ar
    10    4   40 1
    11    5    6 ar
    12    5    9 1
    13    6    7 ar
    14    6    8 1
    15    7   41 1
    16    8   42 1
    17    8   43 1
    18    8   44 1
    19    9   10 1
    20    9   45 1
    21   10   14 1
    22   10   11 2
    23   11   12 1
    24   12   13 2
    25   13   14 1
    26   13   15 1
    27   15   16 1
    28   16   17 1
    29   16   46 1
    30   16   47 1
    31   17   18 2
    32   17   19 am
    33   19   20 1
    34   19   48 1
    35   20   21 1
    36   20   22 1
    37   20   33 1
    38   22   23 1
    39   22   49 1
    40   22   50 1
    41   23   28 1
    42   23   24 2
    43   24   25 1
    44   24   51 1
    45   25   26 1
    46   25   27 1
    47   27   32 ar
    48   27   28 ar
    49   28   29 ar
    50   29   30 ar
    51   29   52 1
    52   30   31 ar
    53   30   53 1
    54   31   32 ar
    55   31   54 1
    56   32   55 1
    57   33   34 2
    58   33   35 1
@<TRIPOS>MOLECULE
ZINC46022192
   66    68     0     0     0
SMALL
USER_CHARGES

@<TRIPOS>ATOM
      1 C1          0.3004   -1.1690    1.4248 C.3       1 <0>        -0.1638
      2 C2          0.7129   -2.6291    1.2279 C.3       1 <0>         0.1705
      3 C3          1.7529   -3.0120    2.2827 C.3       1 <0>        -0.1661
      4 C4         -0.5154   -3.5300    1.3721 C.3       1 <0>        -0.1540
      5 N1          1.2881   -2.7980   -0.1089 N.am      1 <0>        -0.7300
      6 C5          2.3845   -2.0992   -0.4639 C.2       1 <0>         0.5117
      7 O1          2.8949   -1.3305    0.3232 O.2       1 <0>        -0.5027
      8 C6          2.9762   -2.2729   -1.8389 C.3       1 <0>         0.0370
      9 N2          4.1554   -1.4079   -1.9774 N.3       1 <0>        -0.5150
     10 C7          5.2298   -1.8335   -1.0705 C.3       1 <0>         0.0396
     11 C8          6.3659   -0.8059   -1.1122 C.3       1 <0>         0.1443
     12 N3          6.7730   -0.6162   -2.5128 N.pl3     1 <0>        -0.6571
     13 C9          5.7298   -0.3220   -3.5069 C.3       1 <0>         0.1326
     14 C10         4.6187   -1.3686   -3.3709 C.3       1 <0>         0.0420
     15 C11         8.0913   -0.7107   -2.8821 C.2       1 <0>         0.6370
     16 N4          9.0288   -0.2314   -2.0976 N.2       1 <0>        -0.6036
     17 C12         8.6880    0.5060   -0.9942 C.ar      1 <0>         0.1232
     18 C13         7.9334    1.6732   -1.1378 C.ar      1 <0>        -0.1542
     19 C14         7.5889    2.4179   -0.0273 C.ar      1 <0>        -0.1244
     20 C15         7.9865    2.0159    1.2322 C.ar      1 <0>        -0.1060
     21 C16         8.7421    0.8509    1.3912 C.ar      1 <0>        -0.1183
     22 C17         9.0883    0.0905    0.2740 C.ar      1 <0>        -0.0982
     23 C18         9.1668    0.4226    2.7381 C.2       1 <0>         0.5204
     24 O2          8.8578    1.0874    3.7168 O.co2     1 <0>        -0.6900
     25 O3          9.8278   -0.5970    2.8754 O.co2     1 <0>        -0.6897
     26 N5          8.4298   -1.3062   -4.0712 N.pl3     1 <0>        -0.7195
     27 C19         9.8398   -1.5045   -4.4159 C.3       1 <0>         0.1492
     28 C20         9.9399   -2.1836   -5.7833 C.3       1 <0>         0.0674
     29 H1          9.4592   -1.5704   -6.5456 H         1 <0>         0.0746
     30 C21        11.4238   -2.4345   -6.1518 C.3       1 <0>        -0.1476
     31 C22        11.2850   -3.6247   -7.1397 C.3       1 <0>        -0.1553
     32 C23        10.0843   -4.3985   -6.5539 C.3       1 <0>         0.0506
     33 O4          9.3369   -3.4866   -5.7382 O.3       1 <0>        -0.3768
     34 H2          1.1754   -0.5272    1.3221 H         1 <0>         0.0815
     35 H3         -0.4406   -0.8962    0.6733 H         1 <0>         0.0512
     36 H4         -0.1276   -1.0433    2.4194 H         1 <0>         0.0614
     37 H5          1.3249   -2.8863    3.2773 H         1 <0>         0.0626
     38 H6          2.0467   -4.0522    2.1424 H         1 <0>         0.0522
     39 H7          2.6279   -2.3702    2.1800 H         1 <0>         0.0815
     40 H8         -1.2563   -3.2572    0.6206 H         1 <0>         0.0599
     41 H9         -0.2215   -4.5702    1.2318 H         1 <0>         0.0602
     42 H10        -0.9433   -3.4043    2.3667 H         1 <0>         0.0727
     43 H11         0.8799   -3.4127   -0.7384 H         1 <0>         0.3955
     44 H12         3.2701   -3.3131   -1.9793 H         1 <0>         0.0597
     45 H13         2.2353   -2.0001   -2.5904 H         1 <0>         0.1010
     46 H14         4.8413   -1.9050   -0.0546 H         1 <0>         0.1035
     47 H15         5.6075   -2.8063   -1.3852 H         1 <0>         0.0294
     48 H16         6.0181    0.1414   -0.7005 H         1 <0>         0.0790
     49 H17         7.2124   -1.1722   -0.5313 H         1 <0>         0.0885
     50 H18         5.3208    0.6719   -3.3253 H         1 <0>         0.0705
     51 H19         6.1557   -0.3683   -4.5092 H         1 <0>         0.0737
     52 H20         5.0049   -2.3479   -3.6536 H         1 <0>         0.0373
     53 H21         3.7870   -1.1030   -4.0234 H         1 <0>         0.0814
     54 H22         7.6192    1.9940   -2.1200 H         1 <0>         0.1003
     55 H23         7.0059    3.3193   -0.1446 H         1 <0>         0.1071
     56 H24         7.7135    2.6033    2.0964 H         1 <0>         0.1201
     57 H25         9.6678   -0.8132    0.3911 H         1 <0>         0.1214
     58 H26         7.7354   -1.5957   -4.6835 H         1 <0>         0.4012
     59 H27        10.3443   -0.5390   -4.4519 H         1 <0>         0.0799
     60 H28        10.3130   -2.1339   -3.6622 H         1 <0>         0.0726
     61 H29        11.8590   -1.5645   -6.6435 H         1 <0>         0.0868
     62 H30        12.0040   -2.7184   -5.2738 H         1 <0>         0.0859
     63 H31        11.0639   -3.2696   -8.1463 H         1 <0>         0.0758
     64 H32        12.1840   -4.2410   -7.1334 H         1 <0>         0.0830
     65 H33         9.4547   -4.7709   -7.3620 H         1 <0>         0.0661
     66 H34        10.4412   -5.2311   -5.9478 H         1 <0>         0.0693
@<TRIPOS>BOND
     1    1    2 1
     2    1   34 1
     3    1   35 1
     4    1   36 1
     5    2    3 1
     6    2    4 1
     7    2    5 1
     8    3   37 1
     9    3   38 1
    10    3   39 1
    11    4   40 1
    12    4   41 1
    13    4   42 1
    14    5    6 am
    15    5   43 1
    16    6    7 2
    17    6    8 1
    18    8    9 1
    19    8   44 1
    20    8   45 1
    21    9   14 1
    22    9   10 1
    23   10   11 1
    24   10   46 1
    25   10   47 1
    26   11   12 1
    27   11   48 1
    28   11   49 1
    29   12   13 1
    30   12   15 1
    31   13   14 1
    32   13   50 1
    33   13   51 1
    34   14   52 1
    35   14   53 1
    36   15   16 2
    37   15   26 1
    38   16   17 1
    39   17   22 ar
    40   17   18 ar
    41   18   19 ar
    42   18   54 1
    43   19   20 ar
    44   19   55 1
    45   20   21 ar
    46   20   56 1
    47   21   22 ar
    48   21   23 1
    49   22   57 1
    50   23   24 2
    51   23   25 1
    52   26   27 1
    53   26   58 1
    54   27   28 1
    55   27   59 1
    56   27   60 1
    57   28   29 1
    58   28   33 1
    59   28   30 1
    60   30   31 1
    61   30   61 1
    62   30   62 1
    63   31   32 1
    64   31   63 1
    65   31   64 1
    66   32   33 1
    67   32   65 1
    68   32   66 1
@<TRIPOS>MOLECULE
ZINC13245959
   39    41     0     0     0
SMALL
USER_CHARGES
4-fluoro-2-[[2-[[5-[(3-fluorophenyl)amino]-1,3,4-thiadiazol-2-yl]sulfanyl]acetyl]amino]benzoic acid
@<TRIPOS>ATOM
      1 C1          6.8490    0.2854   -0.5663 C.ar      1 <0>        -0.0621
      2 C2          5.7065    1.0566   -0.6551 C.ar      1 <0>        -0.1357
      3 C3          5.6633    2.3056   -0.0483 C.ar      1 <0>         0.1869
      4 C4          6.7724    2.7783    0.6419 C.ar      1 <0>        -0.1834
      5 C5          7.9117    1.9995    0.7319 C.ar      1 <0>         0.1219
      6 C6          7.9500    0.7544    0.1256 C.ar      1 <0>        -0.1687
      7 F1          8.9895    2.4553    1.4070 F         1 <0>        -0.1362
      8 N1          4.5087    3.0872   -0.1368 N.pl3     1 <0>        -0.6096
      9 C7          3.2586    2.4794   -0.1702 C.2       1 <0>         0.3254
     10 N2          2.9539    1.1971   -0.2140 N.2       1 <0>        -0.3479
     11 N3          1.6347    0.8071   -0.2359 N.2       1 <0>        -0.2795
     12 C8          0.6808    1.7186   -0.2244 C.2       1 <0>         0.0389
     13 S1          1.6362    3.2267   -0.1659 S.3       1 <0>         0.0182
     14 S2         -1.0680    1.5050   -0.2517 S.3       1 <0>         0.1342
     15 C9         -1.2895   -0.2944   -0.3107 C.3       1 <0>        -0.1542
     16 C10        -2.7609   -0.6188   -0.3382 C.2       1 <0>         0.5344
     17 O1         -3.5795    0.2758   -0.3198 O.2       1 <0>        -0.5229
     18 N4         -3.1671   -1.9031   -0.3833 N.am      1 <0>        -0.6313
     19 C11        -4.5251   -2.2064   -0.3259 C.ar      1 <0>         0.1977
     20 C12        -5.4520   -1.3698   -0.9304 C.ar      1 <0>        -0.1729
     21 C13        -6.7999   -1.6756   -0.8762 C.ar      1 <0>         0.1087
     22 C14        -7.2354   -2.8133   -0.2092 C.ar      1 <0>        -0.1819
     23 C15        -6.3289   -3.6510    0.4003 C.ar      1 <0>        -0.0331
     24 C16        -4.9629   -3.3571    0.3489 C.ar      1 <0>        -0.1481
     25 C17        -3.9887   -4.2499    0.9987 C.2       1 <0>         0.4964
     26 O2         -2.8146   -3.9392    1.0423 O.co2     1 <0>        -0.6316
     27 F2         -7.6981   -0.8606   -1.4713 F         1 <0>        -0.1442
     28 H1          6.8823   -0.6854   -1.0385 H         1 <0>         0.1403
     29 H2          4.8470    0.6886   -1.1957 H         1 <0>         0.1486
     30 H3          6.7436    3.7508    1.1106 H         1 <0>         0.1399
     31 H4          8.8419    0.1492    0.1933 H         1 <0>         0.1382
     32 H5          4.5792    4.0539   -0.1750 H         1 <0>         0.4315
     33 H6         -0.8134   -0.6899   -1.2080 H         1 <0>         0.1313
     34 H7         -0.8344   -0.7456    0.5710 H         1 <0>         0.1368
     35 H8         -2.5136   -2.6163   -0.4557 H         1 <0>         0.4301
     36 H9         -5.1207   -0.4811   -1.4469 H         1 <0>         0.1477
     37 H10        -8.2901   -3.0416   -0.1682 H         1 <0>         0.1320
     38 H11        -6.6726   -4.5343    0.9180 H         1 <0>         0.1459
     39 O3         -4.3991   -5.4115    1.5451 O.co2     1 <0>        -0.7417
@<TRIPOS>BOND
     1    1    6 ar
     2    1    2 ar
     3    1   28 1
     4    2    3 ar
     5    2   29 1
     6    3    4 ar
     7    3    8 1
     8    4    5 ar
     9    4   30 1
    10    5    6 ar
    11    5    7 1
    12    6   31 1
    13    8    9 1
    14    8   32 1
    15    9   13 1
    16    9   10 2
    17   10   11 1
    18   11   12 2
    19   12   13 1
    20   12   14 1
    21   14   15 1
    22   15   16 1
    23   15   33 1
    24   15   34 1
    25   16   17 2
    26   16   18 am
    27   18   19 1
    28   18   35 1
    29   19   24 ar
    30   19   20 ar
    31   20   21 ar
    32   20   36 1
    33   21   22 ar
    34   21   27 1
    35   22   23 ar
    36   22   37 1
    37   23   24 ar
    38   23   38 1
    39   24   25 1
    40   25   26 2
    41   25   39 1
@<TRIPOS>MOLECULE
ZINC17099309
   51    53     0     0     0
SMALL
USER_CHARGES
4-[[(6R)-3-[(4-chlorophenyl)carbamoyl]-6-ethyl-4,5,6,7-tetrahydrobenzothiophen-2-yl]amino]-4-oxo-butanoic acid
@<TRIPOS>ATOM
      1 C1          9.7400   -0.3021    3.8896 C.3       1 <0>        -0.1563
      2 C2          8.2409   -0.5020    4.1209 C.3       1 <0>        -0.1175
      3 C3          7.4553    0.2092    3.0173 C.3       1 <0>        -0.0829
      4 H1          7.7479    1.2585    2.9787 H         1 <0>         0.0763
      5 C4          5.9548    0.1020    3.3046 C.3       1 <0>        -0.1117
      6 C5          5.1765    1.0117    2.3524 C.3       1 <0>        -0.0589
      7 C6          5.6019    0.7032    0.9222 C.2       1 <0>        -0.0618
      8 C7          6.7542    0.0468    0.6654 C.2       1 <0>        -0.2206
      9 S1          6.8199   -0.0788   -1.0993 S.3       1 <0>         0.2376
     10 C8          5.3356    0.7241   -1.4923 C.2       1 <0>         0.0969
     11 C9          4.8282    1.0767   -0.2496 C.2       1 <0>        -0.2515
     12 C10         3.5560    1.7941   -0.1236 C.2       1 <0>         0.5893
     13 O1          3.5416    3.0112   -0.1174 O.2       1 <0>        -0.5086
     14 N1          2.4023    1.1060   -0.0145 N.am      1 <0>        -0.6689
     15 C11         1.1806    1.7877    0.0085 C.ar      1 <0>         0.1504
     16 C12         0.0588    1.2250   -0.5861 C.ar      1 <0>        -0.1321
     17 C13        -1.1446    1.9024   -0.5666 C.ar      1 <0>        -0.0895
     18 C14        -1.2359    3.1355    0.0547 C.ar      1 <0>        -0.0505
     19 C15        -0.1195    3.6985    0.6479 C.ar      1 <0>        -0.0912
     20 C16         1.0876    3.0280    0.6263 C.ar      1 <0>        -0.1097
     21 Cl1        -2.7516    3.9813    0.0832 Cl        1 <0>        -0.0729
     22 N2          4.7884    0.9589   -2.7445 N.am      1 <0>        -0.6275
     23 C17         5.4323    0.5377   -3.8511 C.2       1 <0>         0.5087
     24 O2          6.4904   -0.0466   -3.7515 O.2       1 <0>        -0.4958
     25 C18         4.8376    0.7929   -5.2121 C.3       1 <0>        -0.1127
     26 C19         5.7609    0.2178   -6.2881 C.3       1 <0>        -0.1430
     27 C20         5.1661    0.4730   -7.6490 C.2       1 <0>         0.4611
     28 O3          4.1120    1.0551   -7.7482 O.co2     1 <0>        -0.6428
     29 C21         7.7487   -0.4572    1.6653 C.3       1 <0>        -0.0269
     30 H2         10.0168   -0.7180    2.9208 H         1 <0>         0.0575
     31 H3          9.9716    0.7629    3.9074 H         1 <0>         0.0542
     32 H4         10.2997   -0.8088    4.6758 H         1 <0>         0.0527
     33 H5          7.9641   -0.0861    5.0897 H         1 <0>         0.0633
     34 H6          8.0093   -1.5670    4.1031 H         1 <0>         0.0635
     35 H7          5.6321   -0.9296    3.1646 H         1 <0>         0.0667
     36 H8          5.7605    0.4057    4.3333 H         1 <0>         0.0681
     37 H9          5.3960    2.0544    2.5821 H         1 <0>         0.0774
     38 H10         4.1078    0.8280    2.4635 H         1 <0>         0.0696
     39 H11         2.4189    0.1382    0.0480 H         1 <0>         0.4146
     40 H12         0.1284    0.2605   -1.0672 H         1 <0>         0.1367
     41 H13        -2.0163    1.4672   -1.0327 H         1 <0>         0.1379
     42 H14        -0.1923    4.6632    1.1279 H         1 <0>         0.1362
     43 H15         1.9587    3.4679    1.0890 H         1 <0>         0.1481
     44 H16         3.9421    1.4262   -2.8242 H         1 <0>         0.4199
     45 H17         3.8608    0.3137   -5.2774 H         1 <0>         0.1023
     46 H18         4.7266    1.8665   -5.3646 H         1 <0>         0.1029
     47 H19         6.7377    0.6970   -6.2227 H         1 <0>         0.0741
     48 H20         5.8719   -0.8558   -6.1356 H         1 <0>         0.0740
     49 H21         7.6568   -1.5390    1.7615 H         1 <0>         0.0807
     50 H22         8.7575   -0.2018    1.3407 H         1 <0>         0.0802
     51 O4          5.8075    0.0535   -8.7511 O.co2     1 <0>        -0.7677
@<TRIPOS>BOND
     1    1    2 1
     2    1   30 1
     3    1   31 1
     4    1   32 1
     5    2    3 1
     6    2   33 1
     7    2   34 1
     8    3    4 1
     9    3   29 1
    10    3    5 1
    11    5    6 1
    12    5   35 1
    13    5   36 1
    14    6    7 1
    15    6   37 1
    16    6   38 1
    17    7   11 1
    18    7    8 2
    19    8    9 1
    20    8   29 1
    21    9   10 1
    22   10   11 2
    23   10   22 1
    24   11   12 1
    25   12   13 2
    26   12   14 am
    27   14   15 1
    28   14   39 1
    29   15   20 ar
    30   15   16 ar
    31   16   17 ar
    32   16   40 1
    33   17   18 ar
    34   17   41 1
    35   18   19 ar
    36   18   21 1
    37   19   20 ar
    38   19   42 1
    39   20   43 1
    40   22   23 am
    41   22   44 1
    42   23   24 2
    43   23   25 1
    44   25   26 1
    45   25   45 1
    46   25   46 1
    47   26   27 1
    48   26   47 1
    49   26   48 1
    50   27   28 2
    51   27   51 1
    52   29   49 1
    53   29   50 1
@<TRIPOS>MOLECULE
ZINC12600050
   46    49     0     0     0
SMALL
USER_CHARGES
N-(4-chlorophenyl)-3-[[(3-oxoinden-1-yl)amino]carbamoyl]benzenesulfonamide
@<TRIPOS>ATOM
      1 C1         -0.8470    4.2640   -0.5386 C.ar      1 <0>        -0.1002
      2 C2         -2.2019    4.0275   -0.6220 C.ar      1 <0>        -0.1090
      3 C3         -2.6849    2.7226   -0.6634 C.ar      1 <0>        -0.0579
      4 C4         -1.8022    1.6624   -0.6211 C.ar      1 <0>        -0.1454
      5 C5         -0.4196    1.9015   -0.5364 C.ar      1 <0>        -0.0677
      6 C6          0.0504    3.2021   -0.4959 C.ar      1 <0>        -0.0857
      7 C7          0.2525    0.5776   -0.5097 C.2       1 <0>         0.2937
      8 C8         -0.6902   -0.4007   -0.5755 C.2       1 <0>        -0.3990
      9 C9         -1.9753    0.1828   -0.6518 C.2       1 <0>         0.4531
     10 O1         -3.0317   -0.4149   -0.7263 O.2       1 <0>        -0.4595
     11 N1          1.6055    0.3741   -0.4308 N.pl3     1 <0>        -0.4925
     12 N2          2.1179   -0.9297   -0.4134 N.am      1 <0>        -0.5357
     13 C10         3.4485   -1.1299   -0.3358 C.2       1 <0>         0.5715
     14 O2          4.2039   -0.1791   -0.2809 O.2       1 <0>        -0.5312
     15 C11         3.9893   -2.5057   -0.3174 C.ar      1 <0>        -0.1609
     16 C12         3.1241   -3.5998   -0.3744 C.ar      1 <0>        -0.0570
     17 C13         3.6354   -4.8808   -0.3613 C.ar      1 <0>        -0.1470
     18 C14         5.0021   -5.0828   -0.2815 C.ar      1 <0>         0.0037
     19 C15         5.8646   -4.0030   -0.2199 C.ar      1 <0>        -0.6591
     20 C16         5.3665   -2.7164   -0.2371 C.ar      1 <0>         0.0423
     21 S1          7.6031   -4.2713   -0.1186 S.o2      1 <0>         2.5894
     22 O3          7.8342   -5.6049   -0.5515 O.2       1 <0>        -1.0334
     23 O4          8.2235   -3.1517   -0.7357 O.2       1 <0>        -0.9933
     24 N3          8.0145   -4.2162    1.4846 N.2       1 <0>        -1.0819
     25 C17         7.5011   -5.1671    2.3707 C.ar      1 <0>         0.2275
     26 C18         6.5055   -4.8123    3.2719 C.ar      1 <0>        -0.1494
     27 C19         5.9957   -5.7556    4.1423 C.ar      1 <0>        -0.0984
     28 C20         6.4845   -7.0501    4.1255 C.ar      1 <0>        -0.0850
     29 C21         7.4804   -7.4049    3.2326 C.ar      1 <0>        -0.0958
     30 C22         7.9896   -6.4672    2.3558 C.ar      1 <0>        -0.1523
     31 Cl1         5.8467   -8.2313    5.2263 Cl        1 <0>        -0.1075
     32 H1         -0.4799    5.2792   -0.5062 H         1 <0>         0.1358
     33 H2         -2.8918    4.8577   -0.6551 H         1 <0>         0.1354
     34 H3         -3.7473    2.5403   -0.7288 H         1 <0>         0.1360
     35 H4          1.1115    3.3925   -0.4306 H         1 <0>         0.1319
     36 H5         -0.3872   -1.4581   -0.5639 H         1 <0>         0.1436
     37 H6          2.2891    1.2344   -0.3811 H         1 <0>         0.4688
     38 H7          1.4343   -1.7900   -0.4631 H         1 <0>         0.4505
     39 H8          2.0571   -3.4435   -0.4325 H         1 <0>         0.1222
     40 H9          2.9674   -5.7281   -0.4091 H         1 <0>         0.1335
     41 H10         5.3971   -6.0879   -0.2670 H         1 <0>         0.1409
     42 H11         6.0409   -1.8743   -0.1889 H         1 <0>         0.1478
     43 H12         6.1273   -3.8008    3.2889 H         1 <0>         0.1187
     44 H13         5.2179   -5.4816    4.8397 H         1 <0>         0.1157
     45 H14         7.8595   -8.4161    3.2212 H         1 <0>         0.1172
     46 H15         8.7666   -6.7448    1.6589 H         1 <0>         0.1258
@<TRIPOS>BOND
     1    1    6 ar
     2    1    2 ar
     3    1   32 1
     4    2    3 ar
     5    2   33 1
     6    3    4 ar
     7    3   34 1
     8    4    9 1
     9    4    5 ar
    10    5    6 ar
    11    5    7 1
    12    6   35 1
    13    7    8 2
    14    7   11 1
    15    8    9 1
    16    8   36 1
    17    9   10 2
    18   11   12 1
    19   11   37 1
    20   12   13 am
    21   12   38 1
    22   13   14 2
    23   13   15 1
    24   15   20 ar
    25   15   16 ar
    26   16   17 ar
    27   16   39 1
    28   17   18 ar
    29   17   40 1
    30   18   19 ar
    31   18   41 1
    32   19   20 ar
    33   19   21 1
    34   20   42 1
    35   21   22 2
    36   21   23 2
    37   21   24 1
    38   24   25 1
    39   25   30 ar
    40   25   26 ar
    41   26   27 ar
    42   26   43 1
    43   27   28 ar
    44   27   44 1
    45   28   29 ar
    46   28   31 1
    47   29   30 ar
    48   29   45 1
    49   30   46 1
@<TRIPOS>MOLECULE
ZINC39898044
   57    60     0     0     0
SMALL
USER_CHARGES

@<TRIPOS>ATOM
      1 C1         -0.1254    0.3687    1.0753 C.3       1 <0>        -0.1387
      2 C2          0.0276    1.3089   -0.1220 C.3       1 <0>        -0.0315
      3 C3         -1.3549    1.7667   -0.5909 C.3       1 <0>        -0.1393
      4 C4          0.8561    2.5277    0.2892 C.3       1 <0>        -0.1460
      5 C5          0.7241    0.5836   -1.2445 C.ar      1 <0>        -0.0566
      6 C6          1.9295    1.0555   -1.7294 C.ar      1 <0>        -0.1181
      7 C7          2.5684    0.3902   -2.7590 C.ar      1 <0>        -0.0882
      8 C8          2.0020   -0.7473   -3.3034 C.ar      1 <0>        -0.1049
      9 C9          0.7971   -1.2197   -2.8178 C.ar      1 <0>        -0.1005
     10 C10         0.1603   -0.5568   -1.7853 C.ar      1 <0>        -0.1077
     11 C11         2.6980   -1.4720   -4.4265 C.3       1 <0>         0.2475
     12 H1          2.2154   -2.4322   -4.6088 H         1 <0>         0.1099
     13 C12         2.6741   -0.6350   -5.6761 C.2       1 <0>        -0.1682
     14 C13         1.9030    0.0067   -6.6512 C.2       1 <0>         0.1137
     15 N1          2.7354    0.5842   -7.4952 N.2       1 <0>        -0.2235
     16 N2          3.9550    0.3708   -7.1496 N.pl3     1 <0>        -0.3315
     17 H2          4.7342    0.7002   -7.6243 H         1 <0>         0.4543
     18 C14         3.9908   -0.3887   -6.0148 C.2       1 <0>        -0.0607
     19 C15         4.8567   -1.0392   -5.0251 C.2       1 <0>         0.5989
     20 O1          6.0725   -1.0108   -5.0410 O.2       1 <0>        -0.5146
     21 N3          4.1150   -1.6730   -4.0970 N.am      1 <0>        -0.5927
     22 C16         4.6314   -2.4313   -2.9547 C.3       1 <0>         0.1436
     23 C17         4.8279   -3.8934   -3.3601 C.3       1 <0>        -0.1412
     24 C18         5.3671   -4.6853   -2.1671 C.3       1 <0>         0.0796
     25 O2          5.5507   -6.0510   -2.5457 O.3       1 <0>        -0.5736
     26 C19         0.4209    0.0320   -6.7231 C.ar      1 <0>        -0.0271
     27 C20        -0.3353   -0.7261   -5.8327 C.ar      1 <0>        -0.0753
     28 C21        -1.7145   -0.6993   -5.9036 C.ar      1 <0>        -0.0425
     29 C22        -2.3480    0.0793   -6.8575 C.ar      1 <0>        -0.0855
     30 C23        -1.6059    0.8345   -7.7455 C.ar      1 <0>        -0.1333
     31 C24        -0.2218    0.8210   -7.6808 C.ar      1 <0>         0.1391
     32 O3          0.5084    1.5680   -8.5498 O.3       1 <0>        -0.4789
     33 Cl1        -2.6566   -1.6449   -4.7936 Cl        1 <0>        -0.0607
     34 H3         -0.7157   -0.4995    0.7823 H         1 <0>         0.0577
     35 H4          0.8595    0.0426    1.4094 H         1 <0>         0.0562
     36 H5         -0.6292    0.8933    1.8872 H         1 <0>         0.0596
     37 H6         -1.8586    2.2914    0.2209 H         1 <0>         0.0594
     38 H7         -1.2459    2.4366   -1.4439 H         1 <0>         0.0567
     39 H8         -1.9451    0.8985   -0.8839 H         1 <0>         0.0583
     40 H9          1.8411    2.2015    0.6233 H         1 <0>         0.0585
     41 H10         0.9652    3.1975   -0.5637 H         1 <0>         0.0585
     42 H11         0.3524    3.0523    1.1011 H         1 <0>         0.0596
     43 H12         2.3720    1.9442   -1.3041 H         1 <0>         0.1273
     44 H13         3.5098    0.7593   -3.1384 H         1 <0>         0.1141
     45 H14         0.3544   -2.1082   -3.2433 H         1 <0>         0.1244
     46 H15        -0.7792   -0.9280   -1.4034 H         1 <0>         0.1248
     47 H16         5.5862   -2.0098   -2.6406 H         1 <0>         0.0927
     48 H17         3.9206   -2.3752   -2.1302 H         1 <0>         0.0923
     49 H18         3.8730   -4.3149   -3.6742 H         1 <0>         0.0757
     50 H19         5.5386   -3.9495   -4.1846 H         1 <0>         0.0770
     51 H20         6.3220   -4.2639   -1.8530 H         1 <0>         0.0494
     52 H21         4.6564   -4.6292   -1.3426 H         1 <0>         0.0492
     53 H22         5.8913   -6.6133   -1.8366 H         1 <0>         0.3833
     54 H23         0.1560   -1.3345   -5.0878 H         1 <0>         0.1405
     55 H24        -3.4267    0.0961   -6.9079 H         1 <0>         0.1410
     56 H25        -2.1053    1.4395   -8.4877 H         1 <0>         0.1436
     57 H26         0.7357    1.1079   -9.3693 H         1 <0>         0.3943
@<TRIPOS>BOND
     1    1    2 1
     2    1   34 1
     3    1   35 1
     4    1   36 1
     5    2    3 1
     6    2    4 1
     7    2    5 1
     8    3   37 1
     9    3   38 1
    10    3   39 1
    11    4   40 1
    12    4   41 1
    13    4   42 1
    14    5   10 ar
    15    5    6 ar
    16    6    7 ar
    17    6   43 1
    18    7    8 ar
    19    7   44 1
    20    8    9 ar
    21    8   11 1
    22    9   10 ar
    23    9   45 1
    24   10   46 1
    25   11   12 1
    26   11   21 1
    27   11   13 1
    28   13   18 2
    29   13   14 1
    30   14   15 2
    31   14   26 1
    32   15   16 1
    33   16   17 1
    34   16   18 1
    35   18   19 1
    36   19   20 2
    37   19   21 am
    38   21   22 1
    39   22   23 1
    40   22   47 1
    41   22   48 1
    42   23   24 1
    43   23   49 1
    44   23   50 1
    45   24   25 1
    46   24   51 1
    47   24   52 1
    48   25   53 1
    49   26   31 ar
    50   26   27 ar
    51   27   28 ar
    52   27   54 1
    53   28   29 ar
    54   28   33 1
    55   29   30 ar
    56   29   55 1
    57   30   31 ar
    58   30   56 1
    59   31   32 1
    60   32   57 1
@<TRIPOS>MOLECULE
ZINC59994880
   46    47     0     0     0
SMALL
USER_CHARGES

@<TRIPOS>ATOM
      1 C1         -0.0187    1.5258    0.0104 C.3       1 <0>        -0.1627
      2 C2          0.0021   -0.0041    0.0020 C.3       1 <0>         0.1434
      3 H1         -1.0205   -0.3814    0.0098 H         1 <0>         0.0874
      4 C3          0.7421   -0.5109    1.2415 C.3       1 <0>        -0.1191
      5 C4          0.6554   -2.0374    1.2986 C.3       1 <0>        -0.0881
      6 C5          1.3843   -2.5366    2.5195 C.ar      1 <0>        -0.0587
      7 C6          2.7306   -2.8412    2.4441 C.ar      1 <0>        -0.1095
      8 C7          3.3996   -3.2987    3.5637 C.ar      1 <0>        -0.0874
      9 C8          2.7218   -3.4517    4.7598 C.ar      1 <0>        -0.0978
     10 C9          1.3747   -3.1467    4.8348 C.ar      1 <0>        -0.0903
     11 C10         0.7077   -2.6843    3.7160 C.ar      1 <0>        -0.1133
     12 Br1         3.6364   -4.0781    6.2918 Br        1 <0>        -0.0591
     13 N1          0.6878   -0.4765   -1.2033 N.am      1 <0>        -0.7292
     14 C11         0.0062   -0.6081   -2.3585 C.2       1 <0>         0.5681
     15 O1         -1.1778   -0.3348   -2.4004 O.2       1 <0>        -0.5339
     16 C12         0.6968   -1.0840   -3.5725 C.ar      1 <0>        -0.1275
     17 C13         2.0558   -1.4045   -3.5267 C.ar      1 <0>        -0.1411
     18 C14         2.6967   -1.8507   -4.6694 C.ar      1 <0>         0.2692
     19 C15         1.9908   -1.9801   -5.8611 C.ar      1 <0>        -0.2131
     20 C16         0.6481   -1.6652   -5.9132 C.ar      1 <0>        -0.0998
     21 C17        -0.0084   -1.2220   -4.7749 C.ar      1 <0>         0.0519
     22 O2         -1.3305   -0.9181   -4.8270 O.3       1 <0>        -0.4818
     23 N2          4.0583   -2.1720   -4.6259 N.2       1 <0>        -1.0983
     24 S1          4.8270   -2.7060   -5.9920 S.o2      1 <0>         2.5255
     25 O3          4.1955   -3.9400   -6.3046 O.2       1 <0>        -1.0296
     26 O4          4.7640   -1.6108   -6.8952 O.2       1 <0>        -1.0303
     27 C18         6.5428   -2.9946   -5.4788 C.3       1 <0>        -0.6364
     28 H2          1.0039    1.9031    0.0027 H         1 <0>         0.0562
     29 H3         -0.5459    1.8868   -0.8726 H         1 <0>         0.0621
     30 H4         -0.5289    1.8773    0.9072 H         1 <0>         0.0606
     31 H5          1.7879   -0.2080    1.1895 H         1 <0>         0.0716
     32 H6          0.2852   -0.0874    2.1360 H         1 <0>         0.0779
     33 H7         -0.3904   -2.3402    1.3506 H         1 <0>         0.0773
     34 H8          1.1123   -2.4609    0.4042 H         1 <0>         0.0831
     35 H9          3.2596   -2.7221    1.5101 H         1 <0>         0.1355
     36 H10         4.4513   -3.5370    3.5047 H         1 <0>         0.1321
     37 H11         0.8451   -3.2660    5.7684 H         1 <0>         0.1300
     38 H12        -0.3432   -2.4423    3.7754 H         1 <0>         0.1309
     39 H13         1.6324   -0.6946   -1.1699 H         1 <0>         0.4011
     40 H14         2.6049   -1.3041   -2.6021 H         1 <0>         0.1177
     41 H15         2.4960   -2.3284   -6.7499 H         1 <0>         0.1093
     42 H16         0.1064   -1.7681   -6.8419 H         1 <0>         0.1152
     43 H17        -1.5135    0.0037   -5.0551 H         1 <0>         0.3684
     44 H18         6.5640   -3.7422   -4.6859 H         1 <0>         0.1154
     45 H19         7.1216   -3.3518   -6.3305 H         1 <0>         0.1015
     46 H20         6.9738   -2.0632   -5.1116 H         1 <0>         0.1153
@<TRIPOS>BOND
     1    1    2 1
     2    1   28 1
     3    1   29 1
     4    1   30 1
     5    2    3 1
     6    2    4 1
     7    2   13 1
     8    4    5 1
     9    4   31 1
    10    4   32 1
    11    5    6 1
    12    5   33 1
    13    5   34 1
    14    6   11 ar
    15    6    7 ar
    16    7    8 ar
    17    7   35 1
    18    8    9 ar
    19    8   36 1
    20    9   10 ar
    21    9   12 1
    22   10   11 ar
    23   10   37 1
    24   11   38 1
    25   13   14 am
    26   13   39 1
    27   14   15 2
    28   14   16 1
    29   16   21 ar
    30   16   17 ar
    31   17   18 ar
    32   17   40 1
    33   18   19 ar
    34   18   23 1
    35   19   20 ar
    36   19   41 1
    37   20   21 ar
    38   20   42 1
    39   21   22 1
    40   22   43 1
    41   23   24 1
    42   24   25 2
    43   24   26 2
    44   24   27 1
    45   27   44 1
    46   27   45 1
    47   27   46 1
@<TRIPOS>MOLECULE
ZINC02851085
   38    39     0     0     0
SMALL
USER_CHARGES
ethyl 4-[(5-bromo-2-thienyl)carbonylaminothiocarbamoylamino]benzoate
@<TRIPOS>ATOM
      1 C1         14.7513    5.9070    0.1089 C.3       1 <0>        -0.1541
      2 C2         13.3964    6.6154    0.1651 C.3       1 <0>         0.0632
      3 O1         12.3320    5.6293    0.1103 O.3       1 <0>        -0.3524
      4 C3         11.0669    6.0917    0.1500 C.2       1 <0>         0.5105
      5 O2         10.8589    7.2863    0.2281 O.2       1 <0>        -0.5053
      6 C4          9.9352    5.1481    0.0985 C.ar      1 <0>        -0.1213
      7 C5          8.6218    5.6262    0.1395 C.ar      1 <0>        -0.0437
      8 C6          7.5678    4.7426    0.0908 C.ar      1 <0>        -0.1333
      9 C7          7.8079    3.3747    0.0004 C.ar      1 <0>         0.1607
     10 C8          9.1139    2.8950   -0.0354 C.ar      1 <0>        -0.0891
     11 C9         10.1727    3.7732    0.0081 C.ar      1 <0>        -0.0481
     12 N1          6.7384    2.4831   -0.0488 N.pl3     1 <0>        -0.6340
     13 C10         6.7709    1.4379   -0.8990 C.2       1 <0>         0.5500
     14 S1          8.0578    1.2841   -2.0176 S.2       1 <0>        -0.5406
     15 N2          5.7903    0.5138   -0.8687 N.pl3     1 <0>        -0.4557
     16 N3          4.7372    0.6396    0.0467 N.am      1 <0>        -0.5474
     17 C11         3.7567   -0.2845    0.0771 C.2       1 <0>         0.6183
     18 O3          3.7860   -1.2284   -0.6908 O.2       1 <0>        -0.4953
     19 C12         2.6555   -0.1529    1.0343 C.2       1 <0>        -0.2384
     20 C13         1.5615   -0.9826    1.2271 C.2       1 <0>        -0.0471
     21 C14         0.6683   -0.6223    2.2043 C.2       1 <0>        -0.1341
     22 C15         0.8931    0.5097    2.9243 C.2       1 <0>        -0.1736
     23 S2          2.3732    1.1163    2.2558 S.3       1 <0>         0.2005
     24 Br1        -0.1583    1.2474    4.3122 Br        1 <0>         0.0616
     25 H1         15.5503    6.6473    0.1500 H         1 <0>         0.0815
     26 H2         14.8415    5.2277    0.9565 H         1 <0>         0.0676
     27 H3         14.8274    5.3414   -0.8197 H         1 <0>         0.0684
     28 H4         13.3062    7.2948   -0.6825 H         1 <0>         0.0721
     29 H5         13.3202    7.1810    1.0937 H         1 <0>         0.0717
     30 H6          8.4348    6.6876    0.2090 H         1 <0>         0.1454
     31 H7          6.5531    5.1112    0.1225 H         1 <0>         0.1371
     32 H8          9.2966    1.8326   -0.1011 H         1 <0>         0.1523
     33 H9         11.1859    3.4005   -0.0242 H         1 <0>         0.1467
     34 H10         5.9704    2.6146    0.5290 H         1 <0>         0.4026
     35 H11         5.8137   -0.2385   -1.4806 H         1 <0>         0.4644
     36 H12         4.7138    1.3918    0.6587 H         1 <0>         0.4195
     37 H13         1.4189   -1.8738    0.6341 H         1 <0>         0.1626
     38 H14        -0.2026   -1.2304    2.3997 H         1 <0>         0.1569
@<TRIPOS>BOND
     1    1    2 1
     2    1   25 1
     3    1   26 1
     4    1   27 1
     5    2    3 1
     6    2   28 1
     7    2   29 1
     8    3    4 1
     9    4    5 2
    10    4    6 1
    11    6   11 ar
    12    6    7 ar
    13    7    8 ar
    14    7   30 1
    15    8    9 ar
    16    8   31 1
    17    9   10 ar
    18    9   12 1
    19   10   11 ar
    20   10   32 1
    21   11   33 1
    22   12   13 1
    23   12   34 1
    24   13   14 2
    25   13   15 1
    26   15   16 1
    27   15   35 1
    28   16   17 am
    29   16   36 1
    30   17   18 2
    31   17   19 1
    32   19   23 1
    33   19   20 2
    34   20   21 1
    35   20   37 1
    36   21   22 2
    37   21   38 1
    38   22   23 1
    39   22   24 1
@<TRIPOS>MOLECULE
ZINC10849398
   57    60     0     0     0
SMALL
USER_CHARGES
N-cyclopropyl-3-[2-[2-pyrrolidin-1-yl-5-(trifluoromethyl)phenyl]aminoacetyl]amino-benzamide
@<TRIPOS>ATOM
      1 C1         -7.0972    9.1395   -0.1642 C.ar      1 <0>        -0.1041
      2 C2         -8.0388    8.4009    0.5235 C.ar      1 <0>        -0.0997
      3 C3         -7.6758    7.1957    1.1266 C.ar      1 <0>        -0.1160
      4 C4         -6.3601    6.7420    1.0314 C.ar      1 <0>        -0.0593
      5 C5         -5.4222    7.4910    0.3385 C.ar      1 <0>         0.1386
      6 C6         -5.7924    8.6925   -0.2540 C.ar      1 <0>        -0.1151
      7 N1         -4.1008    7.0404    0.2404 N.am      1 <0>        -0.6705
      8 C7         -3.8440    5.7205    0.1482 C.2       1 <0>         0.5096
      9 O1         -4.7588    4.9300    0.0521 O.2       1 <0>        -0.5036
     10 C8         -2.4202    5.2270    0.1644 C.3       1 <0>         0.1047
     11 N2         -2.4083    3.7664    0.0519 N.pl3     1 <0>        -0.7306
     12 C9         -1.1910    3.0746    0.0449 C.ar      1 <0>         0.2106
     13 C10         0.0063    3.7741    0.0365 C.ar      1 <0>        -0.1365
     14 C11         1.2072    3.0889    0.0292 C.ar      1 <0>        -0.1554
     15 C12         1.2190    1.7064    0.0301 C.ar      1 <0>        -0.1016
     16 C13         0.0299    1.0009    0.0380 C.ar      1 <0>        -0.1256
     17 C14        -1.1791    1.6799    0.0396 C.ar      1 <0>         0.0650
     18 N3         -2.3845    0.9675    0.0412 N.pl3     1 <0>        -0.4700
     19 C15        -2.1379   -0.4960   -0.0179 C.3       1 <0>         0.0289
     20 C16        -3.4618   -1.1003    0.5137 C.3       1 <0>        -0.1244
     21 C17        -3.8692   -0.1119    1.6304 C.3       1 <0>        -0.1317
     22 C18        -3.1356    1.1996    1.2939 C.3       1 <0>         0.0367
     23 C19         2.5071    3.8513    0.0196 C.3       1 <0>         0.5095
     24 F1          3.5766    2.9495    0.0129 F         1 <0>        -0.1768
     25 F2          2.5678    4.6553   -1.1237 F         1 <0>        -0.1775
     26 F3          2.5836    4.6570    1.1608 F         1 <0>        -0.1780
     27 C20        -8.6823    6.4027    1.8644 C.2       1 <0>         0.5638
     28 O2         -8.3639    5.3536    2.3892 O.2       1 <0>        -0.5266
     29 N4         -9.9528    6.8432    1.9551 N.am      1 <0>        -0.6986
     30 C21       -10.9501    6.0575    2.6861 C.3       1 <0>         0.0772
     31 C22       -12.3296    5.8945    2.0447 C.3       1 <0>        -0.1917
     32 C23       -12.1546    6.8048    3.2619 C.3       1 <0>        -0.1875
     33 H1         -7.3800   10.0718   -0.6302 H         1 <0>         0.1370
     34 H2         -9.0563    8.7558    0.5953 H         1 <0>         0.1278
     35 H3         -6.0733    5.8103    1.4963 H         1 <0>         0.1476
     36 H4         -5.0590    9.2769   -0.7897 H         1 <0>         0.1341
     37 H5         -3.3698    7.6780    0.2389 H         1 <0>         0.4165
     38 H6         -1.9435    5.5233    1.0988 H         1 <0>         0.0982
     39 H7         -1.8758    5.6605   -0.6746 H         1 <0>         0.0966
     40 H8         -3.2438    3.2785   -0.0178 H         1 <0>         0.4197
     41 H9          0.0007    4.8541    0.0354 H         1 <0>         0.1332
     42 H10         2.1597    1.1760    0.0244 H         1 <0>         0.1370
     43 H11         0.0427   -0.0790    0.0384 H         1 <0>         0.1424
     44 H12        -1.9545   -0.8142   -1.0442 H         1 <0>         0.0909
     45 H13        -1.3031   -0.7718    0.6265 H         1 <0>         0.0632
     46 H14        -3.2942   -2.0967    0.9227 H         1 <0>         0.0778
     47 H15        -4.2167   -1.1269   -0.2722 H         1 <0>         0.0781
     48 H16        -3.5483   -0.4862    2.6025 H         1 <0>         0.0716
     49 H17        -4.9478    0.0450    1.6218 H         1 <0>         0.0779
     50 H18        -2.4462    1.4562    2.0982 H         1 <0>         0.0539
     51 H19        -3.8558    2.0053    1.1513 H         1 <0>         0.0856
     52 H20       -10.2070    7.6804    1.5363 H         1 <0>         0.4014
     53 H21       -10.5585    5.2168    3.2589 H         1 <0>         0.1398
     54 H22       -12.4952    6.3718    1.0789 H         1 <0>         0.0978
     55 H23       -12.8458    4.9464    2.1954 H         1 <0>         0.1045
     56 H24       -12.5557    6.4556    4.2134 H         1 <0>         0.1058
     57 H25       -12.2048    7.8811    3.0972 H         1 <0>         0.0981
@<TRIPOS>BOND
     1    1    6 ar
     2    1    2 ar
     3    1   33 1
     4    2    3 ar
     5    2   34 1
     6    3    4 ar
     7    3   27 1
     8    4    5 ar
     9    4   35 1
    10    5    6 ar
    11    5    7 1
    12    6   36 1
    13    7    8 am
    14    7   37 1
    15    8    9 2
    16    8   10 1
    17   10   11 1
    18   10   38 1
    19   10   39 1
    20   11   12 1
    21   11   40 1
    22   12   17 ar
    23   12   13 ar
    24   13   14 ar
    25   13   41 1
    26   14   15 ar
    27   14   23 1
    28   15   16 ar
    29   15   42 1
    30   16   17 ar
    31   16   43 1
    32   17   18 1
    33   18   22 1
    34   18   19 1
    35   19   20 1
    36   19   44 1
    37   19   45 1
    38   20   21 1
    39   20   46 1
    40   20   47 1
    41   21   22 1
    42   21   48 1
    43   21   49 1
    44   22   50 1
    45   22   51 1
    46   23   24 1
    47   23   25 1
    48   23   26 1
    49   27   28 2
    50   27   29 am
    51   29   30 1
    52   29   52 1
    53   30   32 1
    54   30   31 1
    55   30   53 1
    56   31   32 1
    57   31   54 1
    58   31   55 1
    59   32   56 1
    60   32   57 1
@<TRIPOS>MOLECULE
ZINC23482914
   46    48     0     0     0
SMALL
USER_CHARGES
[2-(4-fluorophenyl)thiazol-4-yl]methyl (3S)-3-(2-chlorophenyl)-3-ureido-propanoate
@<TRIPOS>ATOM
      1 C1         -0.2639    1.9177   -1.6800 C.ar      1 <0>        -0.1195
      2 C2         -1.0426    1.5466   -0.5995 C.ar      1 <0>        -0.1012
      3 C3         -0.6864    1.9395    0.6766 C.ar      1 <0>        -0.1187
      4 C4          0.4435    2.7141    0.8717 C.ar      1 <0>        -0.0191
      5 C5          1.2190    3.0899   -0.2104 C.ar      1 <0>        -0.0917
      6 C6          0.8649    2.6915   -1.4858 C.ar      1 <0>        -0.0636
      7 C7          2.4495    3.9339    0.0012 C.3       1 <0>         0.2294
      8 H1          2.2323    4.7351    0.7230 H         1 <0>         0.1101
      9 C8          2.9085    4.5113   -1.3393 C.3       1 <0>        -0.1392
     10 C9          4.0634    5.4523   -1.1118 C.2       1 <0>         0.4741
     11 O1          4.4769    5.6417    0.0075 O.2       1 <0>        -0.5013
     12 O2          4.6327    6.0800   -2.1528 O.3       1 <0>        -0.3569
     13 C10         5.7404    6.9718   -1.8593 C.3       1 <0>         0.1426
     14 C11         6.2476    7.5814   -3.1407 C.2       1 <0>         0.0473
     15 C12         5.6682    7.2547   -4.3261 C.2       1 <0>        -0.1676
     16 S1          6.6434    8.2428   -5.4536 S.3       1 <0>         0.0260
     17 C13         7.7191    8.9747   -4.2272 C.2       1 <0>         0.1595
     18 N1          7.2532    8.4246   -3.1146 N.2       1 <0>        -0.4912
     19 C14         8.8288    9.9351   -4.4057 C.ar      1 <0>        -0.0297
     20 C15         9.5460   10.3902   -3.2983 C.ar      1 <0>        -0.0400
     21 C16        10.5835   11.2824   -3.4709 C.ar      1 <0>        -0.1535
     22 C17        10.9077   11.7347   -4.7401 C.ar      1 <0>         0.1214
     23 C18        10.1954   11.2900   -5.8426 C.ar      1 <0>        -0.1508
     24 C19         9.1592   10.3942   -5.6816 C.ar      1 <0>        -0.0608
     25 F1         11.9215   12.6127   -4.9032 F         1 <0>        -0.1320
     26 N2          3.5175    3.1068    0.5680 N.am      1 <0>        -0.7443
     27 C20         3.9040    1.9801   -0.0626 C.2       1 <0>         0.7083
     28 O3          3.4335    1.6990   -1.1479 O.2       1 <0>        -0.5992
     29 N3          4.8121    1.1651    0.5097 N.am      1 <0>        -0.8921
     30 Cl1         0.8879    3.2136    2.4738 Cl        1 <0>        -0.0687
     31 H2         -0.5401    1.6067   -2.6767 H         1 <0>         0.1290
     32 H3         -1.9269    0.9457   -0.7524 H         1 <0>         0.1309
     33 H4         -1.2921    1.6455    1.5211 H         1 <0>         0.1321
     34 H5          1.4705    2.9845   -2.3307 H         1 <0>         0.1355
     35 H6          3.2274    3.6927   -2.0012 H         1 <0>         0.1354
     36 H7          2.0766    5.0582   -1.8071 H         1 <0>         0.1177
     37 H8          5.3994    7.7698   -1.1834 H         1 <0>         0.0932
     38 H9          6.5503    6.4044   -1.3775 H         1 <0>         0.0917
     39 H10         4.8457    6.5852   -4.5303 H         1 <0>         0.2071
     40 H11         9.2913   10.0418   -2.3083 H         1 <0>         0.1471
     41 H12        11.1413   11.6326   -2.6150 H         1 <0>         0.1460
     42 H13        10.4518   11.6459   -6.8295 H         1 <0>         0.1465
     43 H14         8.6042   10.0488   -6.5413 H         1 <0>         0.1387
     44 H15         4.0040    3.4053    1.5083 H         1 <0>         0.4237
     45 H16         5.1275    0.2455   -0.0050 H         1 <0>         0.4349
     46 H17         5.2379    1.4195    1.4915 H         1 <0>         0.4127
@<TRIPOS>BOND
     1    1    6 ar
     2    1    2 ar
     3    1   31 1
     4    2    3 ar
     5    2   32 1
     6    3    4 ar
     7    3   33 1
     8    4    5 ar
     9    4   30 1
    10    5    6 ar
    11    5    7 1
    12    6   34 1
    13    7    8 1
    14    7    9 1
    15    7   26 1
    16    9   10 1
    17    9   35 1
    18    9   36 1
    19   10   11 2
    20   10   12 1
    21   12   13 1
    22   13   14 1
    23   13   37 1
    24   13   38 1
    25   14   18 1
    26   14   15 2
    27   15   16 1
    28   15   39 1
    29   16   17 1
    30   17   18 2
    31   17   19 1
    32   19   24 ar
    33   19   20 ar
    34   20   21 ar
    35   20   40 1
    36   21   22 ar
    37   21   41 1
    38   22   23 ar
    39   22   25 1
    40   23   24 ar
    41   23   42 1
    42   24   43 1
    43   26   27 am
    44   26   44 1
    45   27   28 2
    46   27   29 am
    47   29   45 1
    48   29   46 1
@<TRIPOS>MOLECULE
ZINC40115483
   48    50     0     0     0
SMALL
USER_CHARGES

@<TRIPOS>ATOM
      1 C1         -0.3957    1.0831   -0.0197 C.3       1 <0>        -0.1418
      2 C2         -0.4578   -0.4440   -0.0906 C.3       1 <0>        -0.1003
      3 C3          0.2139   -1.0397    1.1483 C.3       1 <0>        -0.1471
      4 C4         -1.9194   -0.8930   -0.1439 C.3       1 <0>         0.2394
      5 H1         -2.4380   -0.5494    0.7512 H         1 <0>         0.1140
      6 C5         -1.9806   -2.3971   -0.2137 C.2       1 <0>        -0.1575
      7 C6         -2.2267   -3.2883    0.7776 C.2       1 <0>        -0.1370
      8 C7         -2.2345   -4.6379    0.4789 C.2       1 <0>        -0.1551
      9 C8         -1.9957   -5.0303   -0.7964 C.2       1 <0>        -0.1615
     10 S1         -1.7556   -3.4672   -1.6249 S.3       1 <0>         0.0286
     11 N1         -2.5625   -0.3225   -1.3302 N.am      1 <0>        -0.7270
     12 C9         -3.0809    0.9207   -1.2835 C.2       1 <0>         0.5946
     13 O1         -3.0147    1.5694   -0.2560 O.2       1 <0>        -0.5077
     14 C10        -3.7248    1.4918   -2.4712 C.2       1 <0>        -0.0586
     15 C11        -4.2897    2.7458   -2.5684 C.2       1 <0>        -0.0092
     16 C12        -4.7837    2.8740   -3.8703 C.2       1 <0>        -0.7569
     17 C13        -4.5179    1.7219   -4.5310 C.2       1 <0>         0.1596
     18 N2         -3.8698    0.8758   -3.6936 N.pl3     1 <0>        -0.5245
     19 H2         -3.5613   -0.0161   -3.9178 H         1 <0>         0.4237
     20 S2         -5.6064    4.2840   -4.5334 S.o2      1 <0>         2.7197
     21 O2         -6.4010    3.8189   -5.6158 O.2       1 <0>        -0.9498
     22 O3         -6.1595    4.9878   -3.4297 O.2       1 <0>        -0.9429
     23 N3         -4.4446    5.2664   -5.1871 N.pl3     1 <0>        -1.0522
     24 C14        -3.6340    4.7959   -6.2249 C.ar      1 <0>         0.1286
     25 C15        -4.1575    3.9372   -7.1820 C.ar      1 <0>        -0.1523
     26 C16        -3.3544    3.4743   -8.2065 C.ar      1 <0>        -0.0992
     27 C17        -2.0299    3.8645   -8.2799 C.ar      1 <0>        -0.1066
     28 C18        -1.5036    4.7192   -7.3287 C.ar      1 <0>        -0.1307
     29 C19        -2.3030    5.1915   -6.3040 C.ar      1 <0>         0.0798
     30 F1         -1.7906    6.0313   -5.3781 F         1 <0>        -0.1329
     31 H3          0.6457    1.4030    0.0183 H         1 <0>         0.0537
     32 H4         -0.8741    1.5076   -0.9023 H         1 <0>         0.0525
     33 H5         -0.9142    1.4267    0.8753 H         1 <0>         0.0679
     34 H6          0.0608   -0.7876   -0.9856 H         1 <0>         0.0729
     35 H7         -0.3047   -0.6961    2.0434 H         1 <0>         0.0595
     36 H8          0.1696   -2.1277    1.0979 H         1 <0>         0.0584
     37 H9          1.2552   -0.7198    1.1864 H         1 <0>         0.0617
     38 H10        -2.4136   -2.9490    1.7857 H         1 <0>         0.1370
     39 H11        -2.4275   -5.3688    1.2502 H         1 <0>         0.1386
     40 H12        -1.9632   -6.0291   -1.2058 H         1 <0>         0.1887
     41 H13        -2.6153   -0.8396   -2.1492 H         1 <0>         0.3938
     42 H14        -4.3412    3.4888   -1.7863 H         1 <0>         0.1675
     43 H15        -4.7767    1.5129   -5.5585 H         1 <0>         0.1934
     44 H16        -4.3263    6.1683   -4.8501 H         1 <0>         0.4309
     45 H17        -5.1917    3.6311   -7.1256 H         1 <0>         0.1712
     46 H18        -3.7618    2.8064   -8.9510 H         1 <0>         0.1386
     47 H19        -1.4048    3.5004   -9.0819 H         1 <0>         0.1363
     48 H20        -0.4686    5.0217   -7.3888 H         1 <0>         0.1405
@<TRIPOS>BOND
     1    1    2 1
     2    1   31 1
     3    1   32 1
     4    1   33 1
     5    2    3 1
     6    2    4 1
     7    2   34 1
     8    3   35 1
     9    3   36 1
    10    3   37 1
    11    4    5 1
    12    4    6 1
    13    4   11 1
    14    6   10 1
    15    6    7 2
    16    7    8 1
    17    7   38 1
    18    8    9 2
    19    8   39 1
    20    9   10 1
    21    9   40 1
    22   11   12 am
    23   11   41 1
    24   12   13 2
    25   12   14 1
    26   14   18 1
    27   14   15 2
    28   15   16 1
    29   15   42 1
    30   16   17 2
    31   16   20 1
    32   17   18 1
    33   17   43 1
    34   18   19 1
    35   20   21 2
    36   20   22 2
    37   20   23 1
    38   23   24 1
    39   23   44 1
    40   24   29 ar
    41   24   25 ar
    42   25   26 ar
    43   25   45 1
    44   26   27 ar
    45   26   46 1
    46   27   28 ar
    47   27   47 1
    48   28   29 ar
    49   28   48 1
    50   29   30 1
@<TRIPOS>MOLECULE
ZINC66209914
   49    51     0     0     0
SMALL
USER_CHARGES

@<TRIPOS>ATOM
      1 C1          0.0042    1.3799    0.1748 C.ar      1 <0>        -0.1045
      2 C2          1.1738    2.0890   -0.0108 C.ar      1 <0>        -0.0980
      3 C3          2.3783    1.4103   -0.2026 C.ar      1 <0>        -0.1146
      4 C4          2.3946    0.0154   -0.2057 C.ar      1 <0>        -0.0614
      5 C5          1.2148   -0.6872   -0.0184 C.ar      1 <0>         0.1357
      6 C6          0.0205   -0.0021    0.1716 C.ar      1 <0>        -0.1164
      7 N1          1.2259   -2.0868   -0.0207 N.am      1 <0>        -0.6689
      8 C7          2.2948   -2.7530    0.4589 C.2       1 <0>         0.5082
      9 O1          3.2054   -2.1440    0.9795 O.2       1 <0>        -0.5045
     10 C8          2.3587   -4.2545    0.3482 C.3       1 <0>         0.1066
     11 N2          3.6105   -4.7349    0.9384 N.pl3     1 <0>        -0.7302
     12 C9          3.8964   -6.1027    0.9532 C.ar      1 <0>         0.2362
     13 C10         2.9968   -7.0075    0.4035 C.ar      1 <0>        -0.1861
     14 C11         3.2812   -8.3588    0.4193 C.ar      1 <0>        -0.0471
     15 C12         4.4609   -8.8126    0.9824 C.ar      1 <0>        -0.0893
     16 C13         5.3595   -7.9135    1.5316 C.ar      1 <0>         0.0209
     17 C14         5.0826   -6.5592    1.5124 C.ar      1 <0>        -0.1743
     18 Cl1         6.8380   -8.4867    2.2381 Cl        1 <0>        -0.0459
     19 Cl2         4.8147  -10.5121    1.0009 Cl        1 <0>        -0.0562
     20 C15         3.6326    2.1673   -0.4022 C.2       1 <0>         0.5584
     21 O2          4.6804    1.5742   -0.5690 O.2       1 <0>        -0.5311
     22 N3          3.6141    3.5149   -0.3992 N.am      1 <0>        -0.7202
     23 C16         4.8569    4.2649   -0.5970 C.3       1 <0>         0.1222
     24 C17         4.5603    5.7652   -0.5497 C.3       1 <0>         0.0667
     25 H1          4.1197    6.0330    0.4107 H         1 <0>         0.0799
     26 C18         5.8572    6.5777   -0.7918 C.3       1 <0>        -0.1487
     27 C19         5.2732    7.9094   -1.3373 C.3       1 <0>        -0.1559
     28 C20         4.0379    7.4262   -2.1273 C.3       1 <0>         0.0500
     29 O3          3.6788    6.1331   -1.6226 O.3       1 <0>        -0.3786
     30 H2         -0.9261    1.9068    0.3275 H         1 <0>         0.1367
     31 H3          1.1569    3.1688   -0.0081 H         1 <0>         0.1293
     32 H4          3.3235   -0.5152   -0.3539 H         1 <0>         0.1485
     33 H5         -0.8978   -0.5514    0.3174 H         1 <0>         0.1334
     34 H6          0.4642   -2.5772   -0.3675 H         1 <0>         0.4163
     35 H7          1.5144   -4.6942    0.8792 H         1 <0>         0.0994
     36 H8          2.3177   -4.5435   -0.7020 H         1 <0>         0.1007
     37 H9          4.2410   -4.1035    1.3189 H         1 <0>         0.4164
     38 H10         2.0755   -6.6543   -0.0355 H         1 <0>         0.1361
     39 H11         2.5819   -9.0621   -0.0080 H         1 <0>         0.1430
     40 H12         5.7856   -5.8576    1.9364 H         1 <0>         0.1421
     41 H13         2.7780    3.9882   -0.2661 H         1 <0>         0.4041
     42 H14         5.5649    4.0095    0.1915 H         1 <0>         0.0838
     43 H15         5.2851    4.0096   -1.5663 H         1 <0>         0.0771
     44 H16         6.3994    6.7390    0.1400 H         1 <0>         0.0888
     45 H17         6.4913    6.0935   -1.5344 H         1 <0>         0.0846
     46 H18         4.9779    8.5672   -0.5198 H         1 <0>         0.0789
     47 H19         5.9861    8.4043   -1.9967 H         1 <0>         0.0856
     48 H20         3.2109    8.1211   -1.9818 H         1 <0>         0.0707
     49 H21         4.2813    7.3560   -3.1874 H         1 <0>         0.0715
@<TRIPOS>BOND
     1    1    6 ar
     2    1    2 ar
     3    1   30 1
     4    2    3 ar
     5    2   31 1
     6    3    4 ar
     7    3   20 1
     8    4    5 ar
     9    4   32 1
    10    5    6 ar
    11    5    7 1
    12    6   33 1
    13    7    8 am
    14    7   34 1
    15    8    9 2
    16    8   10 1
    17   10   11 1
    18   10   35 1
    19   10   36 1
    20   11   12 1
    21   11   37 1
    22   12   17 ar
    23   12   13 ar
    24   13   14 ar
    25   13   38 1
    26   14   15 ar
    27   14   39 1
    28   15   16 ar
    29   15   19 1
    30   16   17 ar
    31   16   18 1
    32   17   40 1
    33   20   21 2
    34   20   22 am
    35   22   23 1
    36   22   41 1
    37   23   24 1
    38   23   42 1
    39   23   43 1
    40   24   25 1
    41   24   29 1
    42   24   26 1
    43   26   27 1
    44   26   44 1
    45   26   45 1
    46   27   28 1
    47   27   46 1
    48   27   47 1
    49   28   29 1
    50   28   48 1
    51   28   49 1
@<TRIPOS>MOLECULE
ZINC13250935
   52    53     0     0     0
SMALL
USER_CHARGES
(1S,6R)-6-[[[2-(4-tert-butylphenoxy)acetyl]amino]carbamoyl]cyclohex-3-ene-1-carboxylic acid
@<TRIPOS>ATOM
      1 C1          2.6951    0.3226   -0.2752 C.3       1 <0>        -0.1392
      2 C2          2.4142    0.9236    1.1034 C.3       1 <0>        -0.0250
      3 C3          3.5394    1.8907    1.4770 C.3       1 <0>        -0.1453
      4 C4          2.3388   -0.1969    2.1425 C.3       1 <0>        -0.1387
      5 C5          1.1036    1.6667    1.0699 C.ar      1 <0>        -0.1113
      6 C6         -0.0628    0.9949    0.7537 C.ar      1 <0>        -0.0746
      7 C7         -1.2647    1.6750    0.7168 C.ar      1 <0>        -0.2081
      8 C8         -1.3023    3.0308    1.0085 C.ar      1 <0>         0.1283
      9 C9         -0.1306    3.7027    1.3250 C.ar      1 <0>        -0.1447
     10 C10         1.0696    3.0192    1.3550 C.ar      1 <0>        -0.0810
     11 O1         -2.4843    3.7008    0.9787 O.3       1 <0>        -0.2865
     12 C11        -3.6503    2.9450    0.6449 C.3       1 <0>         0.0550
     13 C12        -4.8563    3.8484    0.6618 C.2       1 <0>         0.5091
     14 O2         -4.7299    5.0238    0.9328 O.2       1 <0>        -0.5085
     15 N1         -6.0755    3.3502    0.3755 N.am      1 <0>        -0.5186
     16 N2         -7.1968    4.1901    0.3912 N.am      1 <0>        -0.4976
     17 C13        -8.4159    3.6919    0.1050 C.2       1 <0>         0.5385
     18 O3         -8.5424    2.5166   -0.1661 O.2       1 <0>        -0.5528
     19 C14        -9.6220    4.5953    0.1218 C.3       1 <0>        -0.0779
     20 H1         -9.4078    5.4813    0.7194 H         1 <0>         0.0941
     21 C15       -10.8175    3.8463    0.7146 C.3       1 <0>        -0.0675
     22 C16       -11.2841    2.7829   -0.2359 C.2       1 <0>        -0.1598
     23 C17       -10.9705    2.7437   -1.4911 C.2       1 <0>        -0.1262
     24 C18       -10.0883    3.7507   -2.1692 C.3       1 <0>        -0.0704
     25 C19        -9.9735    5.0129   -1.3118 C.3       1 <0>        -0.1181
     26 H2        -10.9223    5.5494   -1.3149 H         1 <0>         0.0864
     27 C20        -8.8874    5.9015   -1.8613 C.2       1 <0>         0.4647
     28 O4         -7.9283    6.1755   -1.1794 O.co2     1 <0>        -0.6344
     29 H3          2.7488    1.1208   -1.0155 H         1 <0>         0.0568
     30 H4          3.6431   -0.2149   -0.2510 H         1 <0>         0.0565
     31 H5          1.8935   -0.3664   -0.5414 H         1 <0>         0.0561
     32 H6          3.3393    2.3189    2.4592 H         1 <0>         0.0589
     33 H7          4.4874    1.3532    1.5013 H         1 <0>         0.0569
     34 H8          3.5932    2.6889    0.7368 H         1 <0>         0.0593
     35 H9          1.5372   -0.8859    1.8764 H         1 <0>         0.0560
     36 H10         3.2867   -0.7344    2.1668 H         1 <0>         0.0565
     37 H11         2.1387    0.2313    3.1247 H         1 <0>         0.0562
     38 H12        -0.0336   -0.0615    0.5311 H         1 <0>         0.1230
     39 H13        -2.1747    1.1508    0.4650 H         1 <0>         0.1286
     40 H14        -0.1566    4.7592    1.5474 H         1 <0>         0.1327
     41 H15         1.9821    3.5419    1.6011 H         1 <0>         0.1327
     42 H16        -3.5322    2.5151   -0.3497 H         1 <0>         0.0976
     43 H17        -3.7854    2.1450    1.3729 H         1 <0>         0.0965
     44 H18        -6.1766    2.4102    0.1587 H         1 <0>         0.4260
     45 H19        -7.0956    5.1301    0.6080 H         1 <0>         0.4427
     46 H20       -10.5233    3.3847    1.6571 H         1 <0>         0.0674
     47 H21       -11.6300    4.5496    0.8971 H         1 <0>         0.0788
     48 H22       -11.9209    2.0014    0.1516 H         1 <0>         0.0952
     49 H23       -11.3688    1.9363   -2.0877 H         1 <0>         0.0942
     50 H24       -10.5144    4.0098   -3.1384 H         1 <0>         0.0741
     51 H25        -9.0969    3.3219   -2.3156 H         1 <0>         0.0693
     52 O5         -8.9855    6.3886   -3.1082 O.co2     1 <0>        -0.7615
@<TRIPOS>BOND
     1    1    2 1
     2    1   29 1
     3    1   30 1
     4    1   31 1
     5    2    3 1
     6    2    4 1
     7    2    5 1
     8    3   32 1
     9    3   33 1
    10    3   34 1
    11    4   35 1
    12    4   36 1
    13    4   37 1
    14    5   10 ar
    15    5    6 ar
    16    6    7 ar
    17    6   38 1
    18    7    8 ar
    19    7   39 1
    20    8    9 ar
    21    8   11 1
    22    9   10 ar
    23    9   40 1
    24   10   41 1
    25   11   12 1
    26   12   13 1
    27   12   42 1
    28   12   43 1
    29   13   14 2
    30   13   15 am
    31   15   16 1
    32   15   44 1
    33   16   17 am
    34   16   45 1
    35   17   18 2
    36   17   19 1
    37   19   20 1
    38   19   25 1
    39   19   21 1
    40   21   22 1
    41   21   46 1
    42   21   47 1
    43   22   23 2
    44   22   48 1
    45   23   24 1
    46   23   49 1
    47   24   25 1
    48   24   50 1
    49   24   51 1
    50   25   26 1
    51   25   27 1
    52   27   28 2
    53   27   52 1
@<TRIPOS>MOLECULE
ZINC17088088
   59    60     0     0     0
SMALL
USER_CHARGES
5-[[(6R)-6-tert-butyl-3-(isopropylcarbamoyl)-4,5,6,7-tetrahydrobenzothiophen-2-yl]amino]-5-oxo-pentanoic acid
@<TRIPOS>ATOM
      1 C1          3.4799   -9.6856    0.9618 C.3       1 <0>        -0.1627
      2 C2          2.6864   -8.3849    1.1017 C.3       1 <0>         0.1336
      3 C3          1.9050   -8.4033    2.4170 C.3       1 <0>        -0.1612
      4 N1          3.6092   -7.2471    1.0978 N.am      1 <0>        -0.7214
      5 C4          4.0218   -6.7181   -0.0712 C.2       1 <0>         0.5861
      6 O1          3.6278   -7.1858   -1.1235 O.2       1 <0>        -0.5333
      7 C5          4.9453   -5.5793   -0.0751 C.2       1 <0>        -0.2416
      8 C6          6.3847   -5.7767   -0.0907 C.2       1 <0>        -0.0637
      9 C7          7.1206   -4.6440   -0.0920 C.2       1 <0>        -0.2181
     10 S1          5.9319   -3.3321   -0.0802 S.3       1 <0>         0.2314
     11 C8          4.4771   -4.2731   -0.0636 C.2       1 <0>         0.0861
     12 N2          3.1637   -3.8287   -0.0487 N.am      1 <0>        -0.6274
     13 C9          2.8995   -2.5072   -0.0391 C.2       1 <0>         0.5069
     14 O2          3.8105   -1.7066   -0.0435 O.2       1 <0>        -0.4870
     15 C10         1.4720   -2.0242   -0.0229 C.3       1 <0>        -0.1342
     16 C11         1.4513   -0.4944   -0.0145 C.3       1 <0>        -0.0848
     17 C12         0.0021   -0.0041    0.0020 C.3       1 <0>        -0.1585
     18 C13        -0.0184    1.5028    0.0103 C.2       1 <0>         0.4580
     19 O3          1.0197    2.1211    0.0037 O.co2     1 <0>        -0.6372
     20 C14         8.6144   -4.5373   -0.1054 C.3       1 <0>        -0.0317
     21 C15         9.2004   -5.9088    0.2603 C.3       1 <0>        -0.0683
     22 H1          9.0389   -6.1042    1.3204 H         1 <0>         0.0750
     23 C16         8.4991   -6.9836   -0.5754 C.3       1 <0>        -0.1157
     24 C17         7.0524   -7.1462   -0.1054 C.3       1 <0>        -0.0574
     25 C18        10.7004   -5.9225   -0.0410 C.3       1 <0>        -0.0628
     26 C19        11.3958   -4.8364    0.7822 C.3       1 <0>        -0.1453
     27 C20        11.2815   -7.2899    0.3243 C.3       1 <0>        -0.1436
     28 C21        10.9238   -5.6549   -1.5307 C.3       1 <0>        -0.1485
     29 H2          4.0366   -9.6725    0.0247 H         1 <0>         0.0601
     30 H3          4.1751   -9.7787    1.7961 H         1 <0>         0.0563
     31 H4          2.7933  -10.5322    0.9647 H         1 <0>         0.0648
     32 H5          1.9912   -8.2918    0.2674 H         1 <0>         0.0879
     33 H6          1.3397   -7.4767    2.5167 H         1 <0>         0.0626
     34 H7          1.2184   -9.2499    2.4200 H         1 <0>         0.0728
     35 H8          2.6002   -8.4964    3.2514 H         1 <0>         0.0608
     36 H9          3.9232   -6.8744    1.9365 H         1 <0>         0.4010
     37 H10         2.4351   -4.4690   -0.0452 H         1 <0>         0.4178
     38 H11         0.9717   -2.3993    0.8699 H         1 <0>         0.0980
     39 H12         0.9547   -2.3897   -0.9099 H         1 <0>         0.0986
     40 H13         1.9516   -0.1193   -0.9073 H         1 <0>         0.0713
     41 H14         1.9686   -0.1289    0.8726 H         1 <0>         0.0712
     42 H15        -0.4983   -0.3791    0.8948 H         1 <0>         0.0641
     43 H16        -0.5153   -0.3696   -0.8850 H         1 <0>         0.0645
     44 H17         8.9529   -4.2467   -1.0999 H         1 <0>         0.0848
     45 H18         8.9360   -3.7937    0.6238 H         1 <0>         0.0797
     46 H19         8.5081   -6.6893   -1.6249 H         1 <0>         0.0685
     47 H20         9.0245   -7.9316   -0.4607 H         1 <0>         0.0715
     48 H21         7.0396   -7.5698    0.8989 H         1 <0>         0.0726
     49 H22         6.5183   -7.8059   -0.7892 H         1 <0>         0.0722
     50 H23        11.2367   -5.0271    1.8435 H         1 <0>         0.0546
     51 H24        12.4644   -4.8462    0.5676 H         1 <0>         0.0537
     52 H25        10.9818   -3.8623    0.5220 H         1 <0>         0.0588
     53 H26        10.7860   -8.0637   -0.2621 H         1 <0>         0.0584
     54 H27        12.3501   -7.2997    0.1097 H         1 <0>         0.0536
     55 H28        11.1223   -7.4806    1.3856 H         1 <0>         0.0539
     56 H29        10.5098   -4.6807   -1.7910 H         1 <0>         0.0598
     57 H30        11.9924   -5.6646   -1.7454 H         1 <0>         0.0529
     58 H31        10.4283   -6.4286   -2.1172 H         1 <0>         0.0580
     59 O4         -1.1898    2.1580    0.0194 O.co2     1 <0>        -0.7775
@<TRIPOS>BOND
     1    1    2 1
     2    1   29 1
     3    1   30 1
     4    1   31 1
     5    2    3 1
     6    2    4 1
     7    2   32 1
     8    3   33 1
     9    3   34 1
    10    3   35 1
    11    4    5 am
    12    4   36 1
    13    5    6 2
    14    5    7 1
    15    7   11 2
    16    7    8 1
    17    8   24 1
    18    8    9 2
    19    9   10 1
    20    9   20 1
    21   10   11 1
    22   11   12 1
    23   12   13 am
    24   12   37 1
    25   13   14 2
    26   13   15 1
    27   15   16 1
    28   15   38 1
    29   15   39 1
    30   16   17 1
    31   16   40 1
    32   16   41 1
    33   17   18 1
    34   17   42 1
    35   17   43 1
    36   18   19 2
    37   18   59 1
    38   20   21 1
    39   20   44 1
    40   20   45 1
    41   21   22 1
    42   21   23 1
    43   21   25 1
    44   23   24 1
    45   23   46 1
    46   23   47 1
    47   24   48 1
    48   24   49 1
    49   25   26 1
    50   25   27 1
    51   25   28 1
    52   26   50 1
    53   26   51 1
    54   26   52 1
    55   27   53 1
    56   27   54 1
    57   27   55 1
    58   28   56 1
    59   28   57 1
    60   28   58 1
@<TRIPOS>MOLECULE
ZINC40721723
   46    49     0     0     0
SMALL
USER_CHARGES

@<TRIPOS>ATOM
      1 C1         -0.0165    1.3620    0.0095 C.ar      1 <0>        -0.1544
      2 C2          1.1697    2.0834    0.0021 C.ar      1 <0>        -0.1012
      3 C3          2.3856    1.4362   -0.0134 C.ar      1 <0>        -0.1381
      4 C4          2.4281    0.0456   -0.0212 C.ar      1 <0>         0.0956
      5 C5          1.2234   -0.6807   -0.0132 C.ar      1 <0>        -0.1013
      6 C6          0.0021   -0.0041    0.0020 C.ar      1 <0>        -0.0610
      7 C7          1.6036   -2.0953   -0.0245 C.2       1 <0>        -0.1523
      8 C8          2.9451   -2.1410   -0.0380 C.2       1 <0>         0.0378
      9 N1          3.4551   -0.8713   -0.0363 N.pl3     1 <0>        -0.5974
     10 H1          4.3995   -0.6501   -0.0442 H         1 <0>         0.4118
     11 C9          0.6664   -3.2754   -0.0210 C.3       1 <0>        -0.0344
     12 C10         0.2361   -3.5891   -1.4554 C.3       1 <0>         0.0312
     13 H2         -0.1919   -2.6956   -1.9099 H         1 <0>         0.0367
     14 C11        -0.7946   -4.6885   -1.4416 C.2       1 <0>         0.5003
     15 O1         -1.9128   -4.4704   -1.0073 O.co2     1 <0>        -0.7060
     16 O2         -0.5102   -5.7961   -1.8646 O.co2     1 <0>        -0.6729
     17 N2          1.4043   -4.0228   -2.2333 N.3       1 <0>        -0.6483
     18 C12         1.2060   -3.7689   -3.6666 C.3       1 <0>         0.1450
     19 C13         2.4221   -4.2256   -4.4306 C.2       1 <0>         0.0245
     20 C14         2.6086   -5.4556   -4.9478 C.2       1 <0>        -0.1893
     21 C15         3.8703   -5.4523   -5.5759 C.2       1 <0>        -0.1720
     22 C16         4.3894   -4.2075   -5.4053 C.2       1 <0>        -0.0063
     23 O3          3.4974   -3.4724   -4.7139 O.3       1 <0>        -0.1726
     24 C17         5.7018   -3.7400   -5.8986 C.ar      1 <0>         0.0091
     25 C18         6.5293   -4.6052   -6.6164 C.ar      1 <0>        -0.0926
     26 C19         7.7529   -4.1630   -7.0746 C.ar      1 <0>        -0.1035
     27 C20         8.1611   -2.8639   -6.8233 C.ar      1 <0>        -0.0392
     28 C21         7.3447   -2.0010   -6.1118 C.ar      1 <0>        -0.1045
     29 C22         6.1164   -2.4298   -5.6534 C.ar      1 <0>        -0.0968
     30 Cl1         9.7030   -2.3150   -7.4022 Cl        1 <0>        -0.0727
     31 H3         -0.9613    1.8849    0.0259 H         1 <0>         0.1197
     32 H4          1.1388    3.1630    0.0081 H         1 <0>         0.1202
     33 H5          3.3028    2.0064   -0.0198 H         1 <0>         0.1145
     34 H6         -0.9246   -0.5587    0.0082 H         1 <0>         0.1259
     35 H7          3.5346   -3.0459   -0.0490 H         1 <0>         0.1695
     36 H8          1.1742   -4.1414    0.4036 H         1 <0>         0.0735
     37 H9         -0.2127   -3.0396    0.5787 H         1 <0>         0.0816
     38 H10         2.2461   -3.5774   -1.9003 H         1 <0>         0.3220
     39 H11         0.3309   -4.3173   -4.0151 H         1 <0>         0.1087
     40 H12         1.0545   -2.7018   -3.8290 H         1 <0>         0.0338
     41 H13         1.9215   -6.2870   -4.8913 H         1 <0>         0.1571
     42 H14         4.3352   -6.2791   -6.0923 H         1 <0>         0.1490
     43 H15         6.2123   -5.6189   -6.8124 H         1 <0>         0.1388
     44 H16         8.3940   -4.8315   -7.6301 H         1 <0>         0.1383
     45 H17         7.6685   -0.9889   -5.9189 H         1 <0>         0.1358
     46 H18         5.4786   -1.7545   -5.1025 H         1 <0>         0.1364
@<TRIPOS>BOND
     1    1    6 ar
     2    1    2 ar
     3    1   31 1
     4    2    3 ar
     5    2   32 1
     6    3    4 ar
     7    3   33 1
     8    4    9 1
     9    4    5 ar
    10    5    6 ar
    11    5    7 1
    12    6   34 1
    13    7    8 2
    14    7   11 1
    15    8    9 1
    16    8   35 1
    17    9   10 1
    18   11   12 1
    19   11   36 1
    20   11   37 1
    21   12   13 1
    22   12   14 1
    23   12   17 1
    24   14   15 2
    25   14   16 1
    26   17   18 1
    27   17   38 1
    28   18   19 1
    29   18   39 1
    30   18   40 1
    31   19   23 1
    32   19   20 2
    33   20   21 1
    34   20   41 1
    35   21   22 2
    36   21   42 1
    37   22   23 1
    38   22   24 1
    39   24   29 ar
    40   24   25 ar
    41   25   26 ar
    42   25   43 1
    43   26   27 ar
    44   26   44 1
    45   27   28 ar
    46   27   30 1
    47   28   29 ar
    48   28   45 1
    49   29   46 1
@<TRIPOS>MOLECULE
ZINC51010297
   43    44     0     0     0
SMALL
USER_CHARGES

@<TRIPOS>ATOM
      1 C1         -0.0187    1.5258    0.0104 C.3       1 <0>        -0.1510
      2 C2          0.0021   -0.0041    0.0020 C.3       1 <0>        -0.1209
      3 C3          0.7421   -0.5109    1.2415 C.3       1 <0>        -0.1326
      4 C4          0.7628   -2.0407    1.2331 C.3       1 <0>         0.1295
      5 N1          1.4714   -2.5260    2.4200 N.pl3     1 <0>        -0.7361
      6 C5          1.6157   -3.8618    2.6266 C.2       1 <0>         0.5535
      7 O1          1.1078   -4.7383    1.7409 O.3       1 <0>        -0.6371
      8 C6          2.2920   -4.3250    3.7593 C.2       1 <0>        -0.4545
      9 C7          2.8325   -3.3922    4.7019 C.1       1 <0>         0.2983
     10 N2          3.2613   -2.6522    5.4496 N.1       1 <0>        -0.5440
     11 C8          2.4416   -5.7094    3.9734 C.2       1 <0>         0.4172
     12 O2          1.9830   -6.5009    3.1737 O.2       1 <0>        -0.4922
     13 C9          3.1705   -6.2087    5.1943 C.3       1 <0>        -0.1135
     14 C10         3.1909   -7.7155    5.1861 C.2       1 <0>         0.1312
     15 C11         4.2331   -8.3943    4.6949 C.2       1 <0>        -0.2667
     16 S1          3.7223  -10.0852    4.9382 S.3       1 <0>         0.1917
     17 C12         2.2238   -9.7997    5.6453 C.2       1 <0>         0.3703
     18 N3          2.1522   -8.4401    5.6832 N.pl3     1 <0>        -0.5854
     19 N4          1.3272  -10.6869    6.0690 N.2       1 <0>        -0.6183
     20 C13         1.5755  -11.9967    5.9531 C.2       1 <0>         0.5708
     21 O3          2.6243  -12.3775    5.4588 O.2       1 <0>        -0.5332
     22 C14         0.5844  -12.9774    6.4215 C.2       1 <0>        -0.2074
     23 C15         0.6473  -14.3601    6.3993 C.2       1 <0>        -0.0917
     24 C16        -0.4465  -15.0170    6.9148 C.2       1 <0>        -0.1837
     25 C17        -1.4836  -14.2905    7.3964 C.2       1 <0>        -0.2509
     26 S2         -1.0075  -12.6951    7.1726 S.3       1 <0>         0.2442
     27 H1          1.0039    1.9031    0.0027 H         1 <0>         0.0527
     28 H2         -0.5459    1.8868   -0.8726 H         1 <0>         0.0523
     29 H3         -0.5289    1.8773    0.9072 H         1 <0>         0.0526
     30 H4         -1.0205   -0.3814    0.0098 H         1 <0>         0.0639
     31 H5          0.5123   -0.3556   -0.8948 H         1 <0>         0.0640
     32 H6          1.7647   -0.1336    1.2338 H         1 <0>         0.0641
     33 H7          0.2319   -0.1594    2.1383 H         1 <0>         0.0639
     34 H8         -0.2598   -2.4180    1.2409 H         1 <0>         0.0581
     35 H9          1.2730   -2.3923    0.3363 H         1 <0>         0.0584
     36 H10         1.8375   -1.8942    3.0584 H         1 <0>         0.3889
     37 H11         4.1931   -5.8314    5.1866 H         1 <0>         0.1130
     38 H12         2.6603   -5.8571    6.0911 H         1 <0>         0.0950
     39 H13         5.1476   -8.0161    4.2623 H         1 <0>         0.2015
     40 H14         1.5007  -14.8898    6.0023 H         1 <0>         0.1462
     41 H15        -0.4778  -16.0963    6.9348 H         1 <0>         0.1323
     42 H16        -2.4040  -14.6539    7.8292 H         1 <0>         0.1841
     43 H17         1.3736   -7.9966    6.0549 H         1 <0>         0.4217
@<TRIPOS>BOND
     1    1    2 1
     2    1   27 1
     3    1   28 1
     4    1   29 1
     5    2    3 1
     6    2   30 1
     7    2   31 1
     8    3    4 1
     9    3   32 1
    10    3   33 1
    11    4    5 1
    12    4   34 1
    13    4   35 1
    14    5    6 1
    15    5   36 1
    16    6    7 1
    17    6    8 2
    18    8    9 1
    19    8   11 1
    20    9   10 3
    21   11   12 2
    22   11   13 1
    23   13   14 1
    24   13   37 1
    25   13   38 1
    26   14   18 1
    27   14   15 2
    28   15   16 1
    29   15   39 1
    30   16   17 1
    31   17   18 1
    32   17   19 2
    33   18   43 1
    34   19   20 1
    35   20   21 2
    36   20   22 1
    37   22   26 1
    38   22   23 2
    39   23   24 1
    40   23   40 1
    41   24   25 2
    42   24   41 1
    43   25   26 1
    44   25   42 1
@<TRIPOS>MOLECULE
ZINC64409881
   44    45     0     0     0
SMALL
USER_CHARGES

@<TRIPOS>ATOM
      1 C1         -0.0184    1.5028    0.0103 C.3       1 <0>        -0.0703
      2 C2          0.0021   -0.0041    0.0020 C.ar      1 <0>        -0.1989
      3 C3          0.0057   -0.6876   -1.1988 C.ar      1 <0>        -0.0458
      4 C4          0.0244   -2.0688   -1.2109 C.ar      1 <0>        -0.2928
      5 C5          0.0397   -2.7756   -0.0142 C.ar      1 <0>         0.2514
      6 C6          0.0361   -2.0923    1.1934 C.ar      1 <0>        -0.3183
      7 C7          0.0230   -0.7044    1.2019 C.ar      1 <0>         0.3203
      8 N1          0.0255   -0.0127    2.4153 N.2       1 <0>        -1.0922
      9 S1          0.0504   -0.8483    3.8448 S.o2      1 <0>         2.5227
     10 O1         -1.1746   -1.5681    3.8654 O.2       1 <0>        -1.0315
     11 O2          1.2943   -1.5352    3.8416 O.2       1 <0>        -1.0302
     12 C8          0.0458    0.4298    5.1320 C.3       1 <0>        -0.6390
     13 N2          0.0581   -4.1721   -0.0273 N.pl3     1 <0>        -0.7397
     14 C9          0.0614   -4.8927   -1.3028 C.3       1 <0>         0.1425
     15 C10        -1.3761   -5.0532   -1.8016 C.3       1 <0>        -0.1641
     16 C11         0.6809   -6.2528   -1.1097 C.2       1 <0>         0.5127
     17 O3          1.0803   -6.5873   -0.0145 O.2       1 <0>        -0.5266
     18 N3          0.7911   -7.0976   -2.1541 N.am      1 <0>        -0.7288
     19 C12         1.3933   -8.4198   -1.9664 C.3       1 <0>         0.2058
     20 C13         1.3967   -9.1611   -3.2785 C.2       1 <0>        -0.1662
     21 C14         2.3490   -9.1853   -4.2428 C.2       1 <0>        -0.1357
     22 C15         2.1353   -9.9458   -5.3770 C.2       1 <0>        -0.1606
     23 C16         0.9797  -10.6449   -5.4916 C.2       1 <0>        -0.1688
     24 S2          0.1509  -10.2414   -3.9626 S.3       1 <0>         0.0501
     25 H1          1.0042    1.8801    0.0026 H         1 <0>         0.0392
     26 H2         -0.5455    1.8639   -0.8728 H         1 <0>         0.0313
     27 H3         -0.5286    1.8543    0.9071 H         1 <0>         0.0668
     28 H4         -0.0065   -0.1408   -2.1301 H         1 <0>         0.1002
     29 H5          0.0268   -2.6000   -2.1512 H         1 <0>         0.0977
     30 H6          0.0479   -2.6391    2.1247 H         1 <0>         0.0999
     31 H7         -0.8534    1.0385    5.0364 H         1 <0>         0.1138
     32 H8          0.0615   -0.0433    6.1138 H         1 <0>         0.0985
     33 H9          0.9264    1.0622    5.0193 H         1 <0>         0.1139
     34 H10         0.0687   -4.6648    0.8082 H         1 <0>         0.4026
     35 H11         0.6399   -4.3308   -2.0361 H         1 <0>         0.1041
     36 H12        -1.9545   -5.6151   -1.0683 H         1 <0>         0.0611
     37 H13        -1.8241   -4.0694   -1.9413 H         1 <0>         0.0788
     38 H14        -1.3736   -5.5893   -2.7506 H         1 <0>         0.0595
     39 H15         0.4716   -6.8300   -3.0301 H         1 <0>         0.4037
     40 H16         2.4174   -8.3055   -1.6111 H         1 <0>         0.0917
     41 H17         0.8149   -8.9817   -1.2331 H         1 <0>         0.0835
     42 H18         3.2610   -8.6185   -4.1267 H         1 <0>         0.1364
     43 H19         2.8778   -9.9821   -6.1605 H         1 <0>         0.1352
     44 H20         0.6481  -11.2836   -6.2969 H         1 <0>         0.1863
@<TRIPOS>BOND
     1    1    2 1
     2    1   25 1
     3    1   26 1
     4    1   27 1
     5    2    7 ar
     6    2    3 ar
     7    3    4 ar
     8    3   28 1
     9    4    5 ar
    10    4   29 1
    11    5    6 ar
    12    5   13 1
    13    6    7 ar
    14    6   30 1
    15    7    8 1
    16    8    9 1
    17    9   10 2
    18    9   11 2
    19    9   12 1
    20   12   31 1
    21   12   32 1
    22   12   33 1
    23   13   14 1
    24   13   34 1
    25   14   15 1
    26   14   16 1
    27   14   35 1
    28   15   36 1
    29   15   37 1
    30   15   38 1
    31   16   17 2
    32   16   18 am
    33   18   19 1
    34   18   39 1
    35   19   20 1
    36   19   40 1
    37   19   41 1
    38   20   24 1
    39   20   21 2
    40   21   22 1
    41   21   42 1
    42   22   23 2
    43   22   43 1
    44   23   24 1
    45   23   44 1
@<TRIPOS>MOLECULE
ZINC17082906
   55    58     0     0     0
SMALL
USER_CHARGES
(1S,2S)-2-[[(6R)-3-(cyclopropylcarbamoyl)-6-methyl-4,5,6,7-tetrahydrobenzothiophen-2-yl]carbamoyl]cyclohexane-1-carboxylic acid
@<TRIPOS>ATOM
      1 C1          4.7362   -1.4498    9.0973 C.3       1 <0>        -0.1463
      2 C2          4.5147   -0.9822    7.6575 C.3       1 <0>        -0.0853
      3 H1          4.9716   -1.6908    6.9667 H         1 <0>         0.0738
      4 C3          5.1434    0.4009    7.4644 C.3       1 <0>        -0.1122
      5 C4          5.1461    0.7686    5.9797 C.3       1 <0>        -0.0573
      6 C5          3.7354    0.5983    5.4296 C.2       1 <0>        -0.0618
      7 C6          2.8184   -0.1460    6.0851 C.2       1 <0>        -0.2308
      8 S1          1.3582   -0.0452    5.0891 S.3       1 <0>         0.2421
      9 C7          1.9585    0.9627    3.8139 C.2       1 <0>         0.1054
     10 C8          3.2715    1.2035    4.1929 C.2       1 <0>        -0.2593
     11 C9          4.1577    2.0382    3.3757 C.2       1 <0>         0.5936
     12 O1          4.2143    3.2382    3.5709 O.2       1 <0>        -0.5308
     13 N1          4.9097    1.4766    2.4084 N.am      1 <0>        -0.6988
     14 C10         5.7951    2.3106    1.5919 C.3       1 <0>         0.0790
     15 C11         5.8173    2.0519    0.0841 C.3       1 <0>        -0.1940
     16 C12         7.0086    1.6349    0.9501 C.3       1 <0>        -0.1894
     17 N2          1.2878    1.4220    2.6905 N.am      1 <0>        -0.6290
     18 C13         0.0000    1.0800    2.4877 C.2       1 <0>         0.5247
     19 O2         -0.5722    0.3705    3.2877 O.2       1 <0>        -0.4634
     20 C14        -0.7288    1.5792    1.2668 C.3       1 <0>        -0.0757
     21 H2         -0.7436    2.6691    1.2728 H         1 <0>         0.1013
     22 C15        -0.0127    1.0858    0.0080 C.3       1 <0>        -0.1127
     23 C16        -0.7527    1.5927   -1.2315 C.3       1 <0>        -0.1140
     24 C17        -2.1881    1.0631   -1.2207 C.3       1 <0>        -0.1207
     25 C18        -2.9042    1.5565    0.0381 C.3       1 <0>        -0.0972
     26 C19        -2.1642    1.0497    1.2777 C.3       1 <0>        -0.1110
     27 H3         -2.1494   -0.0402    1.2717 H         1 <0>         0.0753
     28 C20        -2.8696    1.5357    2.5176 C.2       1 <0>         0.4765
     29 O3         -2.2843    2.2339    3.3111 O.co2     1 <0>        -0.6347
     30 C21         3.0087   -0.8848    7.3738 C.3       1 <0>        -0.0263
     31 H4          4.2774   -2.4287    9.2361 H         1 <0>         0.0563
     32 H5          5.8057   -1.5182    9.2967 H         1 <0>         0.0550
     33 H6          4.2834   -0.7355    9.7850 H         1 <0>         0.0564
     34 H7          4.5674    1.1411    8.0196 H         1 <0>         0.0667
     35 H8          6.1685    0.3875    7.8348 H         1 <0>         0.0658
     36 H9          5.8297    0.1116    5.4420 H         1 <0>         0.0716
     37 H10         5.4623    1.8049    5.8602 H         1 <0>         0.0720
     38 H11         4.8645    0.5202    2.2528 H         1 <0>         0.4026
     39 H12         5.9119    3.3410    1.9276 H         1 <0>         0.1373
     40 H13         5.1730    1.2613   -0.3004 H         1 <0>         0.0973
     41 H14         5.9489    2.9122   -0.5722 H         1 <0>         0.1021
     42 H15         7.9235    2.2209    0.8632 H         1 <0>         0.1023
     43 H16         7.1483    0.5699    1.1357 H         1 <0>         0.0966
     44 H17         1.7455    1.9895    2.0507 H         1 <0>         0.4129
     45 H18         0.0021   -0.0041    0.0020 H         1 <0>         0.0668
     46 H19         1.0099    1.4631    0.0003 H         1 <0>         0.0586
     47 H20        -0.7675    2.6825   -1.2255 H         1 <0>         0.0635
     48 H21        -0.2425    1.2411   -2.1283 H         1 <0>         0.0611
     49 H22        -2.7153    1.4241   -2.1037 H         1 <0>         0.0593
     50 H23        -2.1733   -0.0268   -1.2266 H         1 <0>         0.0602
     51 H24        -2.9190    2.6464    0.0441 H         1 <0>         0.0559
     52 H25        -3.9268    1.1792    0.0459 H         1 <0>         0.0742
     53 H26         2.5168   -0.3447    8.1828 H         1 <0>         0.0795
     54 H27         2.5855   -1.8857    7.2892 H         1 <0>         0.0775
     55 O4         -4.1481    1.1928    2.7403 O.co2     1 <0>        -0.7724
@<TRIPOS>BOND
     1    1    2 1
     2    1   31 1
     3    1   32 1
     4    1   33 1
     5    2    3 1
     6    2   30 1
     7    2    4 1
     8    4    5 1
     9    4   34 1
    10    4   35 1
    11    5    6 1
    12    5   36 1
    13    5   37 1
    14    6   10 1
    15    6    7 2
    16    7    8 1
    17    7   30 1
    18    8    9 1
    19    9   10 2
    20    9   17 1
    21   10   11 1
    22   11   12 2
    23   11   13 am
    24   13   14 1
    25   13   38 1
    26   14   16 1
    27   14   15 1
    28   14   39 1
    29   15   16 1
    30   15   40 1
    31   15   41 1
    32   16   42 1
    33   16   43 1
    34   17   18 am
    35   17   44 1
    36   18   19 2
    37   18   20 1
    38   20   21 1
    39   20   26 1
    40   20   22 1
    41   22   23 1
    42   22   45 1
    43   22   46 1
    44   23   24 1
    45   23   47 1
    46   23   48 1
    47   24   25 1
    48   24   49 1
    49   24   50 1
    50   25   26 1
    51   25   51 1
    52   25   52 1
    53   26   27 1
    54   26   28 1
    55   28   29 2
    56   28   55 1
    57   30   53 1
    58   30   54 1
@<TRIPOS>MOLECULE
ZINC39630303
   53    54     0     0     0
SMALL
USER_CHARGES

@<TRIPOS>ATOM
      1 C1         -0.0280    1.5026    0.0112 C.3       1 <0>        -0.1098
      2 C2         -0.0025   -0.0041    0.0025 C.ar      1 <0>        -0.0189
      3 C3         -0.1017   -0.7075   -1.1840 C.ar      1 <0>        -0.1814
      4 C4         -0.0755   -2.0914   -1.1615 C.ar      1 <0>         0.1144
      5 N1          0.0425   -2.7552   -0.0287 N.ar      1 <0>        -0.5024
      6 C5          0.1412   -2.1338    1.1373 C.ar      1 <0>         0.1099
      7 C6          0.1281   -0.7270    1.1959 C.ar      1 <0>        -0.1335
      8 C7          0.2434   -0.0300    2.4849 C.2       1 <0>         0.5314
      9 O1         -0.7539    0.1641    3.1669 O.co2     1 <0>        -0.6715
     10 O2          1.3368    0.3562    2.8759 O.co2     1 <0>        -0.6735
     11 S1          0.2969   -3.0719    2.6207 S.3       1 <0>         0.0455
     12 C8          0.2738   -4.7951    2.0545 C.3       1 <0>        -0.1561
     13 C9          0.4013   -5.7155    3.2410 C.2       1 <0>         0.5345
     14 O3          0.4982   -5.2545    4.3581 O.2       1 <0>        -0.4407
     15 N2          0.4076   -7.0510    3.0603 N.am      1 <0>        -0.6892
     16 C10         0.5216   -7.8741    4.1215 C.2       1 <0>         0.6943
     17 O4          0.6188   -7.4119    5.2413 O.2       1 <0>        -0.5257
     18 N3          0.5279   -9.2097    3.9408 N.am      1 <0>        -0.7299
     19 C11         0.6518  -10.1044    5.0942 C.3       1 <0>         0.1675
     20 H1          0.1324   -9.6700    5.9484 H         1 <0>         0.0915
     21 C12         2.1310  -10.2914    5.4379 C.3       1 <0>        -0.1340
     22 C13         2.8601  -10.9010    4.2389 C.3       1 <0>        -0.1180
     23 C14         2.2395  -12.2581    3.9008 C.3       1 <0>        -0.1151
     24 C15         0.7604  -12.0710    3.5571 C.3       1 <0>        -0.0873
     25 H2          0.6682  -11.4054    2.6989 H         1 <0>         0.0668
     26 C16         0.0313  -11.4614    4.7561 C.3       1 <0>        -0.0929
     27 H3          0.1235  -12.1270    5.6143 H         1 <0>         0.0867
     28 C17        -1.4478  -11.2744    4.4123 C.3       1 <0>        -0.1502
     29 C18         0.1399  -13.4281    3.2189 C.3       1 <0>        -0.1496
     30 C19        -0.1845   -2.8537   -2.4568 C.3       1 <0>        -0.0914
     31 H4          0.9934    1.8833    0.0079 H         1 <0>         0.0758
     32 H5         -0.5527    1.8623   -0.8739 H         1 <0>         0.0632
     33 H6         -0.5430    1.8521    0.9061 H         1 <0>         0.0775
     34 H7         -0.1994   -0.1807   -2.1217 H         1 <0>         0.1278
     35 H8         -0.6653   -4.9955    1.5386 H         1 <0>         0.1206
     36 H9          1.1066   -4.9646    1.3721 H         1 <0>         0.1203
     37 H10         0.3300   -7.4199    2.1666 H         1 <0>         0.4086
     38 H11         0.4503   -9.5786    3.0470 H         1 <0>         0.3949
     39 H12         2.5730   -9.3246    5.6788 H         1 <0>         0.0711
     40 H13         2.2232  -10.9570    6.2961 H         1 <0>         0.0722
     41 H14         2.7678  -10.2354    3.3807 H         1 <0>         0.0609
     42 H15         3.9138  -11.0343    4.4838 H         1 <0>         0.0619
     43 H16         2.7589  -12.6924    3.0466 H         1 <0>         0.0618
     44 H17         2.3318  -12.9237    4.7590 H         1 <0>         0.0633
     45 H18        -1.5400  -10.6087    3.5541 H         1 <0>         0.0550
     46 H19        -1.8899  -12.2411    4.1715 H         1 <0>         0.0602
     47 H20        -1.9672  -10.8400    5.2665 H         1 <0>         0.0570
     48 H21         0.2321  -14.0937    4.0771 H         1 <0>         0.0550
     49 H22        -0.9139  -13.2948    2.9741 H         1 <0>         0.0587
     50 H23         0.6593  -13.8624    2.3648 H         1 <0>         0.0539
     51 H24         0.8122   -3.0197   -2.8657 H         1 <0>         0.0703
     52 H25        -0.6667   -3.8139   -2.2739 H         1 <0>         0.0692
     53 H26        -0.7778   -2.2788   -3.1679 H         1 <0>         0.0692
@<TRIPOS>BOND
     1    1    2 1
     2    1   31 1
     3    1   32 1
     4    1   33 1
     5    2    7 ar
     6    2    3 ar
     7    3    4 ar
     8    3   34 1
     9    4    5 ar
    10    4   30 1
    11    5    6 ar
    12    6    7 ar
    13    6   11 1
    14    7    8 1
    15    8    9 2
    16    8   10 1
    17   11   12 1
    18   12   13 1
    19   12   35 1
    20   12   36 1
    21   13   14 2
    22   13   15 am
    23   15   16 am
    24   15   37 1
    25   16   17 2
    26   16   18 am
    27   18   19 1
    28   18   38 1
    29   19   20 1
    30   19   26 1
    31   19   21 1
    32   21   22 1
    33   21   39 1
    34   21   40 1
    35   22   23 1
    36   22   41 1
    37   22   42 1
    38   23   24 1
    39   23   43 1
    40   23   44 1
    41   24   25 1
    42   24   26 1
    43   24   29 1
    44   26   27 1
    45   26   28 1
    46   28   45 1
    47   28   46 1
    48   28   47 1
    49   29   48 1
    50   29   49 1
    51   29   50 1
    52   30   51 1
    53   30   52 1
    54   30   53 1
@<TRIPOS>MOLECULE
ZINC59017697
   41    43     0     0     0
SMALL
USER_CHARGES

@<TRIPOS>ATOM
      1 C1         -0.0187    1.5258    0.0104 C.3       1 <0>        -0.1406
      2 C2          0.0021   -0.0041    0.0020 C.3       1 <0>         0.1717
      3 C3          0.8145   -0.5200   -1.1691 C.2       1 <0>         0.5364
      4 O1          0.5947   -0.3417   -2.3479 O.2       1 <0>        -0.4503
      5 N1          1.8325   -1.2174   -0.6272 N.am      1 <0>        -0.6830
      6 C4          1.7766   -1.2139    0.7095 C.2       1 <0>         0.7085
      7 O2          2.5860   -1.7761    1.4210 O.2       1 <0>        -0.5564
      8 N2          0.7243   -0.5191    1.1781 N.am      1 <0>        -0.7108
      9 C5         -1.4013   -0.5515   -0.0400 C.ar      1 <0>        -0.0687
     10 C6         -1.8526   -1.3739    0.9764 C.ar      1 <0>        -0.2065
     11 C7         -3.1394   -1.8788    0.9415 C.ar      1 <0>        -0.0643
     12 C8         -3.9787   -1.5627   -0.1089 C.ar      1 <0>        -0.2535
     13 C9         -3.5289   -0.7368   -1.1309 C.ar      1 <0>         0.2836
     14 C10        -2.2371   -0.2270   -1.0901 C.ar      1 <0>        -0.1509
     15 N3         -4.3750   -0.4151   -2.1946 N.2       1 <0>        -1.0740
     16 S1         -5.9165   -1.0187   -2.2382 S.o2      1 <0>         2.5965
     17 O3         -5.7973   -2.4256   -2.3986 O.2       1 <0>        -1.0232
     18 O4         -6.6131   -0.4327   -1.1471 O.2       1 <0>        -1.0078
     19 C11        -6.6742   -0.4068   -3.7065 C.ar      1 <0>        -0.6178
     20 C12        -7.0470   -1.2828   -4.7088 C.ar      1 <0>         0.0295
     21 C13        -7.6415   -0.8030   -5.8607 C.ar      1 <0>        -0.2118
     22 C14        -7.8636    0.5533   -6.0112 C.ar      1 <0>        -0.0224
     23 C15        -7.4914    1.4301   -5.0100 C.ar      1 <0>        -0.1388
     24 C16        -6.9014    0.9497   -3.8541 C.ar      1 <0>         0.0876
     25 Cl1        -6.4396    2.0498   -2.5931 Cl        1 <0>        -0.0138
     26 C17        -8.0472   -1.7585   -6.9531 C.3       1 <0>         0.5138
     27 F1         -9.3606   -2.1873   -6.7336 F         1 <0>        -0.1758
     28 F2         -7.9685   -1.1119   -8.1912 F         1 <0>        -0.1768
     29 F3         -7.1890   -2.8634   -6.9488 F         1 <0>        -0.1716
     30 H1          1.0039    1.9031    0.0027 H         1 <0>         0.0625
     31 H2         -0.5459    1.8868   -0.8726 H         1 <0>         0.0897
     32 H3         -0.5289    1.8773    0.9072 H         1 <0>         0.0809
     33 H4          2.5203   -1.6669   -1.1427 H         1 <0>         0.4289
     34 H5          0.4875   -0.3833    2.1089 H         1 <0>         0.4398
     35 H6         -1.1984   -1.6226    1.7989 H         1 <0>         0.1052
     36 H7         -3.4884   -2.5212    1.7364 H         1 <0>         0.1062
     37 H8         -4.9836   -1.9576   -0.1357 H         1 <0>         0.0986
     38 H9         -1.8855    0.4188   -1.8812 H         1 <0>         0.1224
     39 H10        -6.8734   -2.3424   -4.5919 H         1 <0>         0.1589
     40 H11        -8.3278    0.9277   -6.9116 H         1 <0>         0.1476
     41 H12        -7.6647    2.4895   -5.1278 H         1 <0>         0.1506
@<TRIPOS>BOND
     1    1    2 1
     2    1   30 1
     3    1   31 1
     4    1   32 1
     5    2    8 1
     6    2    3 1
     7    2    9 1
     8    3    4 2
     9    3    5 am
    10    5    6 am
    11    5   33 1
    12    6    7 2
    13    6    8 am
    14    8   34 1
    15    9   14 ar
    16    9   10 ar
    17   10   11 ar
    18   10   35 1
    19   11   12 ar
    20   11   36 1
    21   12   13 ar
    22   12   37 1
    23   13   14 ar
    24   13   15 1
    25   14   38 1
    26   15   16 1
    27   16   17 2
    28   16   18 2
    29   16   19 1
    30   19   24 ar
    31   19   20 ar
    32   20   21 ar
    33   20   39 1
    34   21   22 ar
    35   21   26 1
    36   22   23 ar
    37   22   40 1
    38   23   24 ar
    39   23   41 1
    40   24   25 1
    41   26   27 1
    42   26   28 1
    43   26   29 1
@<TRIPOS>MOLECULE
ZINC60648681
   46    47     0     0     0
SMALL
USER_CHARGES

@<TRIPOS>ATOM
      1 C1         -0.4145    1.3395    0.3291 C.3       1 <0>        -0.1113
      2 C2         -0.2003   -0.1380    0.1242 C.ar      1 <0>        -0.1386
      3 C3         -0.3355   -0.6866   -1.1368 C.ar      1 <0>        -0.0857
      4 C4         -0.1404   -2.0406   -1.3288 C.ar      1 <0>        -0.1428
      5 C5          0.1926   -2.8554   -0.2537 C.ar      1 <0>         0.1527
      6 C6          0.3295   -2.3078    1.0135 C.ar      1 <0>        -0.1540
      7 C7          0.1384   -0.9462    1.2021 C.ar      1 <0>         0.1830
      8 N1          0.2811   -0.3892    2.4770 N.am      1 <0>        -0.6815
      9 C8          0.0419   -1.1394    3.5708 C.2       1 <0>         0.5732
     10 O1         -0.2214   -2.3210    3.4522 O.2       1 <0>        -0.4922
     11 C9          0.0991   -0.5288    4.9093 C.ar      1 <0>        -0.3145
     12 C10         0.3953    0.8300    5.0556 C.ar      1 <0>         0.0551
     13 C11         0.4375    1.3628    6.3445 C.ar      1 <0>        -0.2156
     14 C12         0.1820    0.5178    7.4437 C.ar      1 <0>         0.2542
     15 N2         -0.0949   -0.7651    7.2622 N.ar      1 <0>        -0.5685
     16 C13        -0.1490   -1.3033    6.0566 C.ar      1 <0>         0.4766
     17 O2         -0.4414   -2.6177    5.9246 O.3       1 <0>        -0.6183
     18 S1          0.2322    1.1751    9.0778 S.3       1 <0>        -0.1026
     19 C14        -0.1508   -0.2481   10.1353 C.3       1 <0>        -0.1243
     20 C15         0.7367    2.7484    6.5480 C.1       1 <0>         0.2870
     21 N3          0.9741    3.8475    6.7094 N.1       1 <0>        -0.4642
     22 N4          0.3891   -4.2270   -0.4489 N.am      1 <0>        -0.6687
     23 C16         0.9630   -4.6706   -1.5848 C.2       1 <0>         0.5157
     24 O3          1.2340   -3.8896   -2.4723 O.2       1 <0>        -0.5238
     25 C17         1.2679   -6.1369   -1.7522 C.3       1 <0>        -0.1135
     26 C18         1.9119   -6.3710   -3.1202 C.3       1 <0>        -0.1321
     27 C19         2.2310   -6.5864   -0.6515 C.3       1 <0>        -0.1475
     28 H1          0.5302    1.8659    0.1931 H         1 <0>         0.0671
     29 H2         -1.1419    1.7052   -0.3957 H         1 <0>         0.0679
     30 H3         -0.7868    1.5161    1.3383 H         1 <0>         0.0637
     31 H4         -0.5945   -0.0555   -1.9741 H         1 <0>         0.1242
     32 H5         -0.2471   -2.4664   -2.3156 H         1 <0>         0.1331
     33 H6          0.5879   -2.9391    1.8508 H         1 <0>         0.1567
     34 H7          0.5523    0.5370    2.5741 H         1 <0>         0.4040
     35 H8          0.5867    1.4511    4.1931 H         1 <0>         0.1216
     36 H9         -1.1364   -0.6364    9.8789 H         1 <0>         0.0875
     37 H10         0.5973   -1.0260    9.9825 H         1 <0>         0.0874
     38 H11        -0.1432    0.0630   11.1799 H         1 <0>         0.0965
     39 H12         0.1123   -4.8585    0.2333 H         1 <0>         0.4124
     40 H13         0.3436   -6.7104   -1.6827 H         1 <0>         0.0994
     41 H14         2.8362   -5.7974   -3.1896 H         1 <0>         0.0625
     42 H15         2.1324   -7.4316   -3.2412 H         1 <0>         0.0618
     43 H16         1.2258   -6.0507   -3.9043 H         1 <0>         0.0616
     44 H17         1.7722   -6.4196    0.3231 H         1 <0>         0.0635
     45 H18         2.4515   -7.6470   -0.7726 H         1 <0>         0.0694
     46 H19         3.1552   -6.0128   -0.7209 H         1 <0>         0.0620
@<TRIPOS>BOND
     1    1    2 1
     2    1   28 1
     3    1   29 1
     4    1   30 1
     5    2    7 ar
     6    2    3 ar
     7    3    4 ar
     8    3   31 1
     9    4    5 ar
    10    4   32 1
    11    5    6 ar
    12    5   22 1
    13    6    7 ar
    14    6   33 1
    15    7    8 1
    16    8    9 am
    17    8   34 1
    18    9   10 2
    19    9   11 1
    20   11   16 ar
    21   11   12 ar
    22   12   13 ar
    23   12   35 1
    24   13   14 ar
    25   13   20 1
    26   14   15 ar
    27   14   18 1
    28   15   16 ar
    29   16   17 1
    30   18   19 1
    31   19   36 1
    32   19   37 1
    33   19   38 1
    34   20   21 3
    35   22   23 am
    36   22   39 1
    37   23   24 2
    38   23   25 1
    39   25   26 1
    40   25   27 1
    41   25   40 1
    42   26   41 1
    43   26   42 1
    44   26   43 1
    45   27   44 1
    46   27   45 1
    47   27   46 1
@<TRIPOS>MOLECULE
ZINC64612790
   49    52     0     0     0
SMALL
USER_CHARGES

@<TRIPOS>ATOM
      1 C1         -0.0184    1.5028    0.0103 C.3       1 <0>        -0.0903
      2 C2          0.0021   -0.0041    0.0020 C.ar      1 <0>        -0.1979
      3 C3          0.0057   -0.6874   -1.2004 C.ar      1 <0>        -0.0615
      4 C4          0.0244   -2.0681   -1.2116 C.ar      1 <0>        -0.2655
      5 C5          0.0396   -2.7708   -0.0132 C.ar      1 <0>         0.2780
      6 C6          0.0359   -2.0814    1.1925 C.ar      1 <0>        -0.1793
      7 C7          0.0229   -0.7002    1.1965 C.ar      1 <0>        -0.0501
      8 C8          0.0251    0.0488    2.5042 C.3       1 <0>        -0.1064
      9 N1          0.0581   -4.1674   -0.0209 N.2       1 <0>        -1.0901
     10 S1          0.0619   -4.9875   -1.4596 S.o2      1 <0>         2.6170
     11 O1         -1.1901   -4.7266   -2.0791 O.2       1 <0>        -1.0278
     12 O2          1.3004   -4.6936   -2.0913 O.2       1 <0>        -1.0283
     13 C9          0.0866   -6.7076   -1.0786 C.2       1 <0>        -0.6742
     14 C10         1.1178   -7.5404   -1.1701 C.2       1 <0>         0.1175
     15 N2          0.7949   -8.8013   -0.7985 N.2       1 <0>        -0.4659
     16 C11        -0.4364   -8.9304   -0.4361 C.2       1 <0>         0.1344
     17 C12        -1.0638   -7.5562   -0.5689 C.3       1 <0>        -0.0837
     18 C13        -1.1140  -10.1927    0.0313 C.3       1 <0>         0.2858
     19 H1         -1.5559  -10.7213   -0.8133 H         1 <0>         0.1245
     20 N3         -0.1494  -11.0652    0.7398 N.3       1 <0>        -0.5060
     21 N4         -0.8944  -11.6674    1.8471 N.3       1 <0>        -0.5275
     22 C14        -2.2700  -11.1271    1.7495 C.3       1 <0>         0.2614
     23 H2         -2.9114  -11.8164    1.2003 H         1 <0>         0.0734
     24 O3         -2.1238   -9.8869    1.0192 O.3       1 <0>        -0.3673
     25 C15        -2.8324  -10.8689    3.1236 C.ar      1 <0>        -0.0879
     26 C16        -1.9878  -10.5259    4.1628 C.ar      1 <0>        -0.0697
     27 C17        -2.5037  -10.2891    5.4233 C.ar      1 <0>        -0.1281
     28 C18        -3.8641  -10.3949    5.6444 C.ar      1 <0>        -0.1083
     29 C19        -4.7088  -10.7371    4.6050 C.ar      1 <0>        -0.1272
     30 C20        -4.1934  -10.9697    3.3436 C.ar      1 <0>        -0.0968
     31 H3          1.0042    1.8801    0.0026 H         1 <0>         0.0490
     32 H4         -0.5455    1.8639   -0.8728 H         1 <0>         0.0490
     33 H5         -0.5286    1.8543    0.9071 H         1 <0>         0.0532
     34 H6         -0.0065   -0.1406   -2.1317 H         1 <0>         0.1010
     35 H7          0.0269   -2.6011   -2.1509 H         1 <0>         0.0951
     36 H8          0.0473   -2.6246    2.1259 H         1 <0>         0.1104
     37 H9         -1.0019    0.2154    2.8292 H         1 <0>         0.0599
     38 H10         0.5541   -0.5358    3.2568 H         1 <0>         0.0577
     39 H11         0.5246    1.0086    2.3723 H         1 <0>         0.0588
     40 H12         2.1016   -7.2450   -1.5036 H         1 <0>         0.1752
     41 H13        -1.4118   -7.1937    0.3983 H         1 <0>         0.1391
     42 H14        -1.8795   -7.5746   -1.2916 H         1 <0>         0.1299
     43 H15         0.6372  -10.5329    1.0804 H         1 <0>         0.3747
     44 H16        -0.8955  -12.6740    1.7772 H         1 <0>         0.3689
     45 H17        -0.9250  -10.4432    3.9901 H         1 <0>         0.1323
     46 H18        -1.8438  -10.0218    6.2353 H         1 <0>         0.1244
     47 H19        -4.2670  -10.2106    6.6293 H         1 <0>         0.1224
     48 H20        -5.7716  -10.8201    4.7779 H         1 <0>         0.1240
     49 H21        -4.8537  -11.2334    2.5307 H         1 <0>         0.1226
@<TRIPOS>BOND
     1    1    2 1
     2    1   31 1
     3    1   32 1
     4    1   33 1
     5    2    7 ar
     6    2    3 ar
     7    3    4 ar
     8    3   34 1
     9    4    5 ar
    10    4   35 1
    11    5    6 ar
    12    5    9 1
    13    6    7 ar
    14    6   36 1
    15    7    8 1
    16    8   37 1
    17    8   38 1
    18    8   39 1
    19    9   10 1
    20   10   11 2
    21   10   12 2
    22   10   13 1
    23   13   17 1
    24   13   14 2
    25   14   15 1
    26   14   40 1
    27   15   16 2
    28   16   17 1
    29   16   18 1
    30   17   41 1
    31   17   42 1
    32   18   19 1
    33   18   24 1
    34   18   20 1
    35   20   21 1
    36   20   43 1
    37   21   22 1
    38   21   44 1
    39   22   23 1
    40   22   24 1
    41   22   25 1
    42   25   30 ar
    43   25   26 ar
    44   26   27 ar
    45   26   45 1
    46   27   28 ar
    47   27   46 1
    48   28   29 ar
    49   28   47 1
    50   29   30 ar
    51   29   48 1
    52   30   49 1
@<TRIPOS>MOLECULE
ZINC09171079
   77    80     0     0     0
SMALL
USER_CHARGES
5-[2-[(17-acetyl-17-hydroxy-10,13-dimethyl-2,6,7,8,9,11,12,14,15,16-decahydro-1H-cyclopenta[a]phenanthren-3-ylidene)aminooxy]acetyl]aminopentanoic acid
@<TRIPOS>ATOM
      1 C1          2.2290   -1.3926    2.9961 C.3       1 <0>        -0.2082
      2 C2          0.9492   -1.2531    2.2127 C.2       1 <0>         0.3486
      3 O1          0.9023   -1.6186    1.0627 O.2       1 <0>        -0.4376
      4 C3         -0.2721   -0.6575    2.8644 C.3       1 <0>         0.0945
      5 C4         -1.5691   -1.0934    2.1194 C.3       1 <0>        -0.1454
      6 C5         -2.2283    0.1927    1.5748 C.3       1 <0>        -0.1188
      7 C6         -1.0460    1.2021    1.4723 C.3       1 <0>        -0.0754
      8 H1         -1.3762    2.2405    1.4426 H         1 <0>         0.0893
      9 C7         -0.2396    0.8723    2.7509 C.3       1 <0>        -0.0341
     10 C8          1.1678    1.4235    2.7127 C.3       1 <0>        -0.1180
     11 C9          1.9024    0.9572    1.4572 C.3       1 <0>        -0.1694
     12 C10         1.1322    1.4510    0.2255 C.3       1 <0>        -0.0576
     13 H2          1.0372    2.5362    0.2628 H         1 <0>         0.0694
     14 C11        -0.2536    0.8142    0.2199 C.3       1 <0>        -0.1019
     15 H3         -0.1524   -0.2703    0.1782 H         1 <0>         0.1096
     16 C12        -1.0388    1.2982   -1.0045 C.3       1 <0>        -0.1130
     17 C13        -0.3598    0.8395   -2.2771 C.3       1 <0>        -0.0878
     18 C14         1.0816    1.3157   -2.2559 C.2       1 <0>        -0.0447
     19 C15         1.5454    1.9351   -3.3349 C.2       1 <0>        -0.1282
     20 C16         2.9485    2.3834   -3.3803 C.2       1 <0>         0.1758
     21 N1          3.3429    3.3082   -4.1971 N.2       1 <0>        -0.3422
     22 O2          4.7006    3.7102   -4.2091 O.3       1 <0>        -0.2142
     23 C17         4.9943    4.7375   -5.1581 C.3       1 <0>         0.0588
     24 C18         6.4587    5.0854   -5.0848 C.2       1 <0>         0.5136
     25 O3          7.1799    4.5103   -4.2974 O.2       1 <0>        -0.5235
     26 N2          6.9669    6.0356   -5.8943 N.am      1 <0>        -0.7244
     27 C19         8.3906    6.3739   -5.8230 C.3       1 <0>         0.1196
     28 C20         8.7050    7.4737   -6.8391 C.3       1 <0>        -0.1305
     29 C21        10.1918    7.8269   -6.7646 C.3       1 <0>        -0.0961
     30 C22        10.5062    8.9268   -7.7807 C.3       1 <0>        -0.1568
     31 C23        11.9706    9.2747   -7.7074 C.2       1 <0>         0.4569
     32 O4         12.6891    8.7018   -6.9229 O.co2     1 <0>        -0.6409
     33 C24         3.9059    1.7050   -2.4198 C.3       1 <0>        -0.1169
     34 C25         3.2589    1.7312   -1.0355 C.3       1 <0>        -0.1019
     35 C26         1.9053    1.0431   -1.0360 C.3       1 <0>        -0.0215
     36 C27         2.1597   -0.4639   -0.9646 C.3       1 <0>        -0.1413
     37 C28        -0.9796    1.4758    3.9464 C.3       1 <0>        -0.1317
     38 O5         -0.3392   -1.0484    4.2373 O.3       1 <0>        -0.5366
     39 H4          2.0706   -1.9770    3.7920 H         1 <0>         0.0821
     40 H5          2.9953   -1.8403    2.3633 H         1 <0>         0.0839
     41 H6          2.5609   -0.4089    3.3280 H         1 <0>         0.1021
     42 H7         -2.2485   -1.6006    2.8044 H         1 <0>         0.0761
     43 H8         -1.3049   -1.7559    1.2952 H         1 <0>         0.0821
     44 H9         -2.9848    0.5586    2.2691 H         1 <0>         0.0687
     45 H10        -2.6643    0.0128    0.5921 H         1 <0>         0.0740
     46 H11         1.7107    1.0807    3.5935 H         1 <0>         0.0718
     47 H12         1.1263    2.5126    2.7197 H         1 <0>         0.0735
     48 H13         1.9518   -0.1316    1.4455 H         1 <0>         0.1020
     49 H14         2.9106    1.3715    1.4484 H         1 <0>         0.0728
     50 H15        -2.0553    0.9069   -0.9625 H         1 <0>         0.0689
     51 H16        -1.0683    2.3878   -1.0101 H         1 <0>         0.0610
     52 H17        -0.8717    1.2601   -3.1427 H         1 <0>         0.0748
     53 H18        -0.3853   -0.2489   -2.3296 H         1 <0>         0.0796
     54 H19         0.8946    2.1106   -4.1787 H         1 <0>         0.1304
     55 H20         4.7544    4.3847   -6.1612 H         1 <0>         0.0864
     56 H21         4.3989    5.6220   -4.9320 H         1 <0>         0.0862
     57 H22         6.3901    6.4956   -6.5241 H         1 <0>         0.4014
     58 H23         8.6304    6.7266   -4.8199 H         1 <0>         0.0704
     59 H24         8.9860    5.4893   -6.0491 H         1 <0>         0.0705
     60 H25         8.4651    7.1210   -7.8422 H         1 <0>         0.0656
     61 H26         8.1096    8.3583   -6.6129 H         1 <0>         0.0655
     62 H27        10.4316    8.1797   -5.7616 H         1 <0>         0.0642
     63 H28        10.7871    6.9424   -6.9908 H         1 <0>         0.0642
     64 H29        10.2663    8.5740   -8.7838 H         1 <0>         0.0629
     65 H30         9.9108    9.8113   -7.5546 H         1 <0>         0.0629
     66 H31         4.0741    0.6739   -2.7308 H         1 <0>         0.0884
     67 H32         4.8524    2.2451   -2.3968 H         1 <0>         0.0907
     68 H33         3.1310    2.7673   -0.7223 H         1 <0>         0.0639
     69 H34         3.9147    1.2252   -0.3269 H         1 <0>         0.0759
     70 H35         1.2086   -0.9951   -1.0007 H         1 <0>         0.0713
     71 H36         2.7781   -0.7684   -1.8090 H         1 <0>         0.0496
     72 H37         2.6737   -0.7019   -0.0334 H         1 <0>         0.0643
     73 H38        -1.0235    2.5594    3.8372 H         1 <0>         0.0535
     74 H39        -1.9917    1.0735    3.9879 H         1 <0>         0.0586
     75 H40        -0.4506    1.2243    4.8657 H         1 <0>         0.0646
     76 H41        -0.3624   -2.0055    4.3730 H         1 <0>         0.3766
     77 O6         12.4768   10.2211   -8.5136 O.co2     1 <0>        -0.7784
@<TRIPOS>BOND
     1    1    2 1
     2    1   39 1
     3    1   40 1
     4    1   41 1
     5    2    3 2
     6    2    4 1
     7    4    9 1
     8    4    5 1
     9    4   38 1
    10    5    6 1
    11    5   42 1
    12    5   43 1
    13    6    7 1
    14    6   44 1
    15    6   45 1
    16    7    8 1
    17    7   14 1
    18    7    9 1
    19    9   10 1
    20    9   37 1
    21   10   11 1
    22   10   46 1
    23   10   47 1
    24   11   12 1
    25   11   48 1
    26   11   49 1
    27   12   13 1
    28   12   35 1
    29   12   14 1
    30   14   15 1
    31   14   16 1
    32   16   17 1
    33   16   50 1
    34   16   51 1
    35   17   18 1
    36   17   52 1
    37   17   53 1
    38   18   35 1
    39   18   19 2
    40   19   20 1
    41   19   54 1
    42   20   21 2
    43   20   33 1
    44   21   22 1
    45   22   23 1
    46   23   24 1
    47   23   55 1
    48   23   56 1
    49   24   25 2
    50   24   26 am
    51   26   27 1
    52   26   57 1
    53   27   28 1
    54   27   58 1
    55   27   59 1
    56   28   29 1
    57   28   60 1
    58   28   61 1
    59   29   30 1
    60   29   62 1
    61   29   63 1
    62   30   31 1
    63   30   64 1
    64   30   65 1
    65   31   32 2
    66   31   77 1
    67   33   34 1
    68   33   66 1
    69   33   67 1
    70   34   35 1
    71   34   68 1
    72   34   69 1
    73   35   36 1
    74   36   70 1
    75   36   71 1
    76   36   72 1
    77   37   73 1
    78   37   74 1
    79   37   75 1
    80   38   76 1
@<TRIPOS>MOLECULE
ZINC13264198
   60    62     0     0     0
SMALL
USER_CHARGES
1-[4-[C-methyl-N-(phenethylcarbamothioylamino)carbonimidoyl]phenyl]sulfonylpiperidine-4-carboxylic acid
@<TRIPOS>ATOM
      1 C1         -0.1879   12.1092   -2.6329 C.3       1 <0>        -0.1662
      2 C2         -0.1652   11.3487   -1.3320 C.2       1 <0>         0.1730
      3 N1         -0.1476   10.0512   -1.3392 N.2       1 <0>        -0.2805
      4 N2         -0.1497    9.3574   -2.5563 N.pl3     1 <0>        -0.5379
      5 C3         -0.1314    8.0098   -2.5637 C.2       1 <0>         0.5898
      6 S1         -0.1340    7.1619   -4.0510 S.2       1 <0>        -0.6182
      7 N3         -0.1111    7.3296   -1.4004 N.pl3     1 <0>        -0.6630
      8 C4         -0.0912    5.8648   -1.4085 C.3       1 <0>         0.1236
      9 C5         -0.0705    5.3471    0.0311 C.3       1 <0>        -0.0946
     10 C6         -0.0501    3.8402    0.0228 C.ar      1 <0>        -0.0826
     11 C7          1.1563    3.1654    0.0076 C.ar      1 <0>        -0.1110
     12 C8          1.1750    1.7832    0.0004 C.ar      1 <0>        -0.1177
     13 C9         -0.0126    1.0758    0.0080 C.ar      1 <0>        -0.1194
     14 C10        -1.2190    1.7506    0.0173 C.ar      1 <0>        -0.1181
     15 C11        -1.2377    3.1328    0.0299 C.ar      1 <0>        -0.1115
     16 C12        -0.1629   12.0791   -0.0508 C.ar      1 <0>        -0.0081
     17 C13        -0.1761   13.4759   -0.0393 C.ar      1 <0>        -0.1088
     18 C14        -0.1793   14.1524    1.1628 C.ar      1 <0>        -0.0210
     19 C15        -0.1589   13.4508    2.3553 C.ar      1 <0>        -0.6558
     20 C16        -0.1400   12.0673    2.3514 C.ar      1 <0>        -0.0223
     21 C17        -0.1419   11.3775    1.1569 C.ar      1 <0>        -0.0990
     22 S2         -0.1563   14.3235    3.8860 S.o2      1 <0>         2.6849
     23 O1         -0.7270   15.5989    3.6274 O.2       1 <0>        -0.9525
     24 O2         -0.6858   13.4354    4.8607 O.2       1 <0>        -0.9529
     25 N4          1.4262   14.5876    4.2964 N.pl3     1 <0>        -0.9899
     26 C18         2.1606   13.6117    5.1130 C.3       1 <0>         0.1188
     27 C19         2.7657   14.3274    6.3193 C.3       1 <0>        -0.1085
     28 C20         3.6120   15.5080    5.8375 C.3       1 <0>        -0.1268
     29 C21         2.7245   16.4989    5.0809 C.3       1 <0>        -0.1075
     30 C22         2.1206   15.8051    3.8558 C.3       1 <0>         0.1168
     31 C23         4.2348   16.1968    7.0245 C.2       1 <0>         0.4642
     32 O3          3.9937   17.3604    7.2428 O.co2     1 <0>        -0.6391
     33 H1         -1.2209   12.2785   -2.9367 H         1 <0>         0.0981
     34 H2          0.3142   13.0678   -2.5021 H         1 <0>         0.0994
     35 H3          0.3266   11.5313   -3.4006 H         1 <0>         0.0767
     36 H4         -0.1643    9.8469   -3.3936 H         1 <0>         0.4182
     37 H5         -0.1096    7.8100   -0.5577 H         1 <0>         0.4105
     38 H6          0.7987    5.5164   -1.9327 H         1 <0>         0.0923
     39 H7         -0.9811    5.4922   -1.9158 H         1 <0>         0.0921
     40 H8         -0.9604    5.6955    0.5554 H         1 <0>         0.0817
     41 H9          0.8193    5.7197    0.5385 H         1 <0>         0.0822
     42 H10         2.0842    3.7181    0.0017 H         1 <0>         0.1229
     43 H11         2.1175    1.2560   -0.0115 H         1 <0>         0.1232
     44 H12         0.0021   -0.0041    0.0020 H         1 <0>         0.1219
     45 H13        -2.1469    1.1980    0.0188 H         1 <0>         0.1229
     46 H14        -2.1802    3.6600    0.0414 H         1 <0>         0.1224
     47 H15        -0.1878   14.0248   -0.9694 H         1 <0>         0.1420
     48 H16        -0.1936   15.2322    1.1732 H         1 <0>         0.1487
     49 H17        -0.1241   11.5261    3.2859 H         1 <0>         0.1471
     50 H18        -0.1275   10.2976    1.1554 H         1 <0>         0.1398
     51 H19         1.4777   12.8344    5.4558 H         1 <0>         0.0886
     52 H20         2.9579   13.1646    4.5192 H         1 <0>         0.0684
     53 H21         3.3938   13.6337    6.8782 H         1 <0>         0.0840
     54 H22         1.9647   14.6924    6.9622 H         1 <0>         0.0618
     55 H23         4.3978   15.1451    5.1750 H         1 <0>         0.0697
     56 H24         3.3232   17.3507    4.7583 H         1 <0>         0.0759
     57 H25         1.9238   16.8440    5.7351 H         1 <0>         0.0679
     58 H26         2.9145   15.5406    3.1574 H         1 <0>         0.0668
     59 H27         1.4113   16.4746    3.3694 H         1 <0>         0.0883
     60 O4          5.0574   15.5175    7.8391 O.co2     1 <0>        -0.7715
@<TRIPOS>BOND
     1    1    2 1
     2    1   33 1
     3    1   34 1
     4    1   35 1
     5    2    3 2
     6    2   16 1
     7    3    4 1
     8    4    5 1
     9    4   36 1
    10    5    6 2
    11    5    7 1
    12    7    8 1
    13    7   37 1
    14    8    9 1
    15    8   38 1
    16    8   39 1
    17    9   10 1
    18    9   40 1
    19    9   41 1
    20   10   15 ar
    21   10   11 ar
    22   11   12 ar
    23   11   42 1
    24   12   13 ar
    25   12   43 1
    26   13   14 ar
    27   13   44 1
    28   14   15 ar
    29   14   45 1
    30   15   46 1
    31   16   21 ar
    32   16   17 ar
    33   17   18 ar
    34   17   47 1
    35   18   19 ar
    36   18   48 1
    37   19   20 ar
    38   19   22 1
    39   20   21 ar
    40   20   49 1
    41   21   50 1
    42   22   23 2
    43   22   24 2
    44   22   25 1
    45   25   30 1
    46   25   26 1
    47   26   27 1
    48   26   51 1
    49   26   52 1
    50   27   28 1
    51   27   53 1
    52   27   54 1
    53   28   29 1
    54   28   31 1
    55   28   55 1
    56   29   30 1
    57   29   56 1
    58   29   57 1
    59   30   58 1
    60   30   59 1
    61   31   32 2
    62   31   60 1
@<TRIPOS>MOLECULE
ZINC21882731
   56    58     0     0     0
SMALL
USER_CHARGES
(2S)-N-(2,5-difluorophenyl)-2-[[6-[5-methyl-2-(propanoylamino)phenyl]-5-oxo-4H-1,2,4-triazin-3-yl]sulfanyl]butanamide
@<TRIPOS>ATOM
      1 C1         -9.1035   -1.1973   -1.1861 C.3       1 <0>        -0.1574
      2 C2         -8.9809   -0.2590    0.0162 C.3       1 <0>        -0.1047
      3 C3         -7.5317    0.2132    0.1489 C.3       1 <0>        -0.1050
      4 H1         -7.3399    0.8024   -0.7600 H         1 <0>         0.1203
      5 C4         -7.4325    1.2233    1.2629 C.2       1 <0>         0.5396
      6 O1         -7.0271    0.8844    2.3546 O.2       1 <0>        -0.4984
      7 N1         -7.7943    2.5034    1.0459 N.am      1 <0>        -0.6741
      8 C5         -7.6181    3.4610    2.0524 C.ar      1 <0>         0.1730
      9 C6         -7.6031    3.0741    3.3853 C.ar      1 <0>        -0.1533
     10 C7         -7.4283    4.0224    4.3773 C.ar      1 <0>         0.1117
     11 C8         -7.2686    5.3565    4.0414 C.ar      1 <0>        -0.1552
     12 C9         -7.2836    5.7447    2.7146 C.ar      1 <0>        -0.1037
     13 C10        -7.4522    4.8004    1.7182 C.ar      1 <0>         0.0543
     14 F1         -7.4612    5.1799    0.4216 F         1 <0>        -0.1331
     15 F2         -7.4131    3.6467    5.6749 F         1 <0>        -0.1342
     16 S1         -6.4675   -1.2027    0.5219 S.3       1 <0>         0.0555
     17 C11        -4.8840   -0.4538    0.3315 C.ar      1 <0>         0.2782
     18 N2         -3.7637   -1.2241    0.4325 N.ar      1 <0>        -0.6190
     19 C12        -2.5554   -0.6325    0.2773 C.ar      1 <0>         0.4845
     20 O2         -1.5227   -1.2752    0.3533 O.3       1 <0>        -0.5655
     21 C13        -2.5355    0.8115    0.0202 C.ar      1 <0>        -0.0875
     22 N3         -3.6875    1.4566   -0.0569 N.ar      1 <0>        -0.1772
     23 N4         -4.8052    0.8427    0.0934 N.ar      1 <0>        -0.4209
     24 C14        -1.2539    1.5301   -0.1553 C.ar      1 <0>         0.0042
     25 C15        -0.9309    2.0962   -1.3881 C.ar      1 <0>        -0.0862
     26 C16         0.2627    2.7704   -1.5444 C.ar      1 <0>        -0.1109
     27 C17         1.1448    2.8834   -0.4836 C.ar      1 <0>        -0.1130
     28 C18         0.8392    2.3220    0.7415 C.ar      1 <0>        -0.1242
     29 C19        -0.3566    1.6411    0.9147 C.ar      1 <0>         0.1685
     30 N5         -0.6676    1.0731    2.1531 N.am      1 <0>        -0.6689
     31 C20         0.3118    0.5615    2.9249 C.2       1 <0>         0.5203
     32 O3          1.4709    0.6690    2.5843 O.2       1 <0>        -0.5361
     33 C21        -0.0333   -0.1442    4.2110 C.3       1 <0>        -0.1457
     34 C22         1.2509   -0.6253    4.8892 C.3       1 <0>        -0.1336
     35 C23         0.6073    3.3870   -2.8757 C.3       1 <0>        -0.1064
     36 H2        -10.1454   -1.5368   -1.2815 H         1 <0>         0.0609
     37 H3         -8.4462   -2.0673   -1.0408 H         1 <0>         0.0714
     38 H4         -8.8070   -0.6624   -2.1004 H         1 <0>         0.0603
     39 H5         -9.6382    0.6110   -0.1291 H         1 <0>         0.0788
     40 H6         -9.2775   -0.7939    0.9305 H         1 <0>         0.0770
     41 H7         -8.2280    2.7959    0.0782 H         1 <0>         0.4389
     42 H8         -7.7272    2.0339    3.6477 H         1 <0>         0.1732
     43 H9         -7.1323    6.0951    4.8175 H         1 <0>         0.1424
     44 H10        -7.1588    6.7857    2.4557 H         1 <0>         0.1465
     45 H11        -1.6163    2.0108   -2.2184 H         1 <0>         0.1173
     46 H12         2.0770    3.4128   -0.6142 H         1 <0>         0.1176
     47 H13         1.5319    2.4138    1.5649 H         1 <0>         0.1358
     48 H14        -1.7117    1.0435    2.4980 H         1 <0>         0.4280
     49 H15        -0.5630    0.5503    4.8796 H         1 <0>         0.0908
     50 H16        -0.6788   -1.0079    3.9935 H         1 <0>         0.0973
     51 H17         0.9990   -1.1404    5.8279 H         1 <0>         0.0590
     52 H18         1.8964    0.2384    5.1067 H         1 <0>         0.0594
     53 H19         1.7806   -1.3198    4.2206 H         1 <0>         0.0622
     54 H20         1.5895    3.8778   -2.8092 H         1 <0>         0.0602
     55 H21        -0.1571    4.1312   -3.1439 H         1 <0>         0.0639
     56 H22         0.6410    2.6021   -3.6456 H         1 <0>         0.0632
@<TRIPOS>BOND
     1    1    2 1
     2    1   36 1
     3    1   37 1
     4    1   38 1
     5    2    3 1
     6    2   39 1
     7    2   40 1
     8    3    4 1
     9    3    5 1
    10    3   16 1
    11    5    6 2
    12    5    7 am
    13    7    8 1
    14    7   41 1
    15    8   13 ar
    16    8    9 ar
    17    9   10 ar
    18    9   42 1
    19   10   11 ar
    20   10   15 1
    21   11   12 ar
    22   11   43 1
    23   12   13 ar
    24   12   44 1
    25   13   14 1
    26   16   17 1
    27   17   23 ar
    28   17   18 ar
    29   18   19 ar
    30   19   20 1
    31   19   21 ar
    32   21   22 ar
    33   21   24 1
    34   22   23 ar
    35   24   29 ar
    36   24   25 ar
    37   25   26 ar
    38   25   45 1
    39   26   27 ar
    40   26   35 1
    41   27   28 ar
    42   27   46 1
    43   28   29 ar
    44   28   47 1
    45   29   30 1
    46   30   31 am
    47   30   48 1
    48   31   32 2
    49   31   33 1
    50   33   34 1
    51   33   49 1
    52   33   50 1
    53   34   51 1
    54   34   52 1
    55   34   53 1
    56   35   54 1
    57   35   55 1
    58   35   56 1
@<TRIPOS>MOLECULE
ZINC39546555
   72    75     0     0     0
SMALL
USER_CHARGES

@<TRIPOS>ATOM
      1 C1         -0.0186    1.5238    0.0104 C.3       1 <0>        -0.1287
      2 C2          0.0021   -0.0041    0.0020 C.3       1 <0>        -0.0506
      3 C3         -1.4005   -0.5642   -0.0628 C.3       1 <0>        -0.1050
      4 C4         -1.8475   -1.0016    1.3420 C.3       1 <0>        -0.1177
      5 C5         -1.3624   -0.0062    2.3866 C.3       1 <0>        -0.0699
      6 H1         -1.5901    0.9806    1.9500 H         1 <0>         0.0678
      7 C6          0.1444   -0.0287    2.5227 C.3       1 <0>        -0.0575
      8 H2          0.5094    0.9853    2.6929 H         1 <0>         0.0726
      9 C7          0.7368   -0.5784    1.2308 C.3       1 <0>        -0.0795
     10 H3          0.6725   -1.6765    1.2315 H         1 <0>         0.0776
     11 C8          2.1904   -0.1526    0.9678 C.3       1 <0>        -0.1147
     12 C9          2.3495   -0.3246   -0.5659 C.3       1 <0>        -0.1580
     13 C10         0.9211   -0.4636   -1.1455 C.3       1 <0>         0.1038
     14 H4          0.7104   -1.4972   -1.4019 H         1 <0>         0.0586
     15 O1          0.7549    0.3907   -2.2753 O.3       1 <0>        -0.5578
     16 C11         0.6372   -0.9151    3.6617 C.3       1 <0>        -0.1116
     17 C12        -0.0193   -0.5423    4.9826 C.3       1 <0>        -0.0867
     18 C13        -1.5208   -0.6667    4.8165 C.2       1 <0>        -0.0421
     19 C14        -2.1842   -1.3790    5.7207 C.2       1 <0>        -0.1278
     20 C15        -3.6466   -1.5234    5.6459 C.2       1 <0>         0.1757
     21 N1         -4.2780   -2.3899    6.3765 N.2       1 <0>        -0.3434
     22 O2         -5.6862   -2.5044    6.2811 O.3       1 <0>        -0.2131
     23 C16        -6.2482   -3.4973    7.1415 C.3       1 <0>         0.0588
     24 C17        -7.7436   -3.5324    6.9584 C.2       1 <0>         0.5132
     25 O3         -8.2757   -2.7812    6.1688 O.2       1 <0>        -0.5235
     26 N2         -8.4898   -4.3987    7.6720 N.am      1 <0>        -0.7242
     27 C18        -9.9435   -4.4329    7.4940 C.3       1 <0>         0.1196
     28 C19       -10.5453   -5.4960    8.4152 C.3       1 <0>        -0.1312
     29 C20       -12.0635   -5.5317    8.2292 C.3       1 <0>        -0.0907
     30 C21       -12.6653   -6.5948    9.1504 C.3       1 <0>        -0.1825
     31 C22       -14.1607   -6.6299    8.9673 C.2       1 <0>         0.4874
     32 O4        -14.6956   -5.8747    8.1735 O.co2     1 <0>        -0.6983
     33 O5        -14.8357   -7.4136    9.6129 O.co2     1 <0>        -0.7085
     34 C23        -4.3930   -0.6043    4.7008 C.3       1 <0>        -0.1187
     35 C24        -3.5915   -0.4999    3.4048 C.3       1 <0>        -0.1035
     36 C25        -2.1763   -0.0036    3.6531 C.3       1 <0>        -0.0131
     37 C26        -2.3163    1.4759    4.0386 C.3       1 <0>        -0.1489
     38 H5          1.0039    1.9011    0.0027 H         1 <0>         0.0535
     39 H6         -0.5458    1.8848   -0.8726 H         1 <0>         0.0608
     40 H7         -0.5288    1.8753    0.9072 H         1 <0>         0.0546
     41 H8         -2.0877    0.1963   -0.4441 H         1 <0>         0.0654
     42 H9         -1.4234   -1.4269   -0.7352 H         1 <0>         0.0616
     43 H10        -2.9381   -1.0565    1.3534 H         1 <0>         0.0726
     44 H11        -1.4427   -1.9917    1.5609 H         1 <0>         0.0604
     45 H12         2.3602    0.8805    1.2642 H         1 <0>         0.0696
     46 H13         2.8815   -0.8134    1.4960 H         1 <0>         0.0638
     47 H14         2.8403    0.5508   -0.9905 H         1 <0>         0.0720
     48 H15         2.9295   -1.2206   -0.7830 H         1 <0>         0.0641
     49 H16         1.3074    0.1532   -3.0326 H         1 <0>         0.3738
     50 H17         0.4051   -1.9538    3.4248 H         1 <0>         0.0640
     51 H18         1.7182   -0.8034    3.7522 H         1 <0>         0.0665
     52 H19         0.3195   -1.2236    5.7654 H         1 <0>         0.0760
     53 H20         0.2432    0.4793    5.2532 H         1 <0>         0.0800
     54 H21        -1.6396   -1.8608    6.5239 H         1 <0>         0.1293
     55 H22        -5.8288   -4.4723    6.8937 H         1 <0>         0.0863
     56 H23        -6.0147   -3.2541    8.1781 H         1 <0>         0.0864
     57 H24        -8.0642   -4.9996    8.3035 H         1 <0>         0.4011
     58 H25       -10.3629   -3.4578    7.7418 H         1 <0>         0.0703
     59 H26       -10.1770   -4.6760    6.4574 H         1 <0>         0.0703
     60 H27       -10.1259   -6.4710    8.1674 H         1 <0>         0.0638
     61 H28       -10.3118   -5.2528    9.4517 H         1 <0>         0.0638
     62 H29       -12.4830   -4.5566    8.4770 H         1 <0>         0.0629
     63 H30       -12.2970   -5.7748    7.1927 H         1 <0>         0.0629
     64 H31       -12.2459   -7.5698    8.9026 H         1 <0>         0.0557
     65 H32       -12.4318   -6.3516   10.1870 H         1 <0>         0.0557
     66 H33        -5.3794   -1.0258    4.4863 H         1 <0>         0.0906
     67 H34        -4.5200    0.3771    5.1557 H         1 <0>         0.0895
     68 H35        -3.5456   -1.4925    2.9522 H         1 <0>         0.0711
     69 H36        -4.0958    0.1837    2.7239 H         1 <0>         0.0778
     70 H37        -2.8216    2.0141    3.2367 H         1 <0>         0.0611
     71 H38        -2.8997    1.5588    4.9556 H         1 <0>         0.0581
     72 H39        -1.3271    1.9053    4.1973 H         1 <0>         0.0573
@<TRIPOS>BOND
     1    1    2 1
     2    1   38 1
     3    1   39 1
     4    1   40 1
     5    2    9 1
     6    2   13 1
     7    2    3 1
     8    3    4 1
     9    3   41 1
    10    3   42 1
    11    4    5 1
    12    4   43 1
    13    4   44 1
    14    5    6 1
    15    5   36 1
    16    5    7 1
    17    7    8 1
    18    7    9 1
    19    7   16 1
    20    9   10 1
    21    9   11 1
    22   11   12 1
    23   11   45 1
    24   11   46 1
    25   12   13 1
    26   12   47 1
    27   12   48 1
    28   13   14 1
    29   13   15 1
    30   15   49 1
    31   16   17 1
    32   16   50 1
    33   16   51 1
    34   17   18 1
    35   17   52 1
    36   17   53 1
    37   18   36 1
    38   18   19 2
    39   19   20 1
    40   19   54 1
    41   20   21 2
    42   20   34 1
    43   21   22 1
    44   22   23 1
    45   23   24 1
    46   23   55 1
    47   23   56 1
    48   24   25 2
    49   24   26 am
    50   26   27 1
    51   26   57 1
    52   27   28 1
    53   27   58 1
    54   27   59 1
    55   28   29 1
    56   28   60 1
    57   28   61 1
    58   29   30 1
    59   29   62 1
    60   29   63 1
    61   30   31 1
    62   30   64 1
    63   30   65 1
    64   31   32 2
    65   31   33 1
    66   34   35 1
    67   34   66 1
    68   34   67 1
    69   35   36 1
    70   35   68 1
    71   35   69 1
    72   36   37 1
    73   37   70 1
    74   37   71 1
    75   37   72 1
@<TRIPOS>MOLECULE
ZINC58892778
   55    57     0     0     0
SMALL
USER_CHARGES

@<TRIPOS>ATOM
      1 C1         -0.0187    1.5258    0.0104 C.3       1 <0>        -0.1529
      2 C2          0.0021   -0.0041    0.0020 C.3       1 <0>         0.0537
      3 O1          0.6709   -0.4649   -1.1737 O.3       1 <0>        -0.3163
      4 C3          0.7768   -1.8100   -1.3361 C.ar      1 <0>         0.1316
      5 C4          0.2427   -2.6687   -0.3864 C.ar      1 <0>        -0.2066
      6 C5          0.3511   -4.0357   -0.5541 C.ar      1 <0>        -0.0676
      7 C6          0.9917   -4.5482   -1.6671 C.ar      1 <0>        -0.1543
      8 C7          1.5253   -3.6944   -2.6148 C.ar      1 <0>        -0.0693
      9 C8          1.4140   -2.3268   -2.4548 C.ar      1 <0>        -0.1478
     10 C9          1.1090   -6.0397   -1.8472 C.3       1 <0>         0.1546
     11 H1          0.9695   -6.5339   -0.8857 H         1 <0>         0.1079
     12 C10         0.0379   -6.5208   -2.8281 C.3       1 <0>        -0.1346
     13 C11         0.0756   -8.0478   -2.9159 C.3       1 <0>        -0.1276
     14 C12        -0.9794   -8.5216   -3.8820 C.2       1 <0>         0.5227
     15 O2         -1.6917   -7.7169   -4.4452 O.2       1 <0>        -0.4896
     16 N1         -1.1318   -9.8393   -4.1205 N.am      1 <0>        -0.5858
     17 N2         -2.1126  -10.2798   -5.0187 N.2       1 <0>        -0.2149
     18 C13        -2.2598  -11.5525   -5.2491 C.2       1 <0>         0.1380
     19 C14        -3.2849  -12.0129   -6.1878 C.2       1 <0>         0.0031
     20 C15        -3.5495  -13.3239   -6.5172 C.2       1 <0>        -0.1518
     21 C16        -4.6006  -13.3037   -7.4438 C.2       1 <0>        -0.2118
     22 C17        -4.9340  -11.9969   -7.6427 C.2       1 <0>         0.0817
     23 O3         -4.1383  -11.2275   -6.8761 O.3       1 <0>        -0.1418
     24 C18        -5.9956  -11.5070   -8.5444 C.ar      1 <0>        -0.0588
     25 C19        -6.7633  -12.4149   -9.2808 C.ar      1 <0>        -0.0865
     26 C20        -7.7557  -11.9601  -10.1245 C.ar      1 <0>        -0.1335
     27 C21        -7.9995  -10.6048  -10.2484 C.ar      1 <0>         0.0087
     28 C22        -7.2391   -9.6849   -9.5176 C.ar      1 <0>        -0.1293
     29 C23        -6.2382  -10.1397   -8.6587 C.ar      1 <0>        -0.0446
     30 C24        -7.4991   -8.2394   -9.6505 C.2       1 <0>         0.5164
     31 O4         -6.8335   -7.4370   -9.0109 O.co2     1 <0>        -0.6817
     32 O5         -8.3803   -7.8429  -10.4001 O.co2     1 <0>        -0.6594
     33 Cl1        -9.2506  -10.0431  -11.3128 Cl        1 <0>        -0.0397
     34 O6          2.4036   -6.3570   -2.3624 O.3       1 <0>        -0.5564
     35 H2          1.0039    1.9031    0.0027 H         1 <0>         0.0659
     36 H3         -0.5459    1.8868   -0.8726 H         1 <0>         0.0675
     37 H4         -0.5289    1.8773    0.9072 H         1 <0>         0.0786
     38 H5          0.5293   -0.3651    0.8851 H         1 <0>         0.0615
     39 H6         -1.0205   -0.3814    0.0098 H         1 <0>         0.0631
     40 H7         -0.2572   -2.2689    0.4835 H         1 <0>         0.1285
     41 H8         -0.0645   -4.7046    0.1850 H         1 <0>         0.1265
     42 H9          2.0255   -4.0972   -3.4831 H         1 <0>         0.1278
     43 H10         1.8270   -1.6604   -3.1976 H         1 <0>         0.1322
     44 H11        -0.9441   -6.2010   -2.4794 H         1 <0>         0.0857
     45 H12         0.2299   -6.0954   -3.8131 H         1 <0>         0.0798
     46 H13         1.0575   -8.3676   -3.2646 H         1 <0>         0.1046
     47 H14        -0.1164   -8.4732   -1.9309 H         1 <0>         0.0980
     48 H15        -0.5624  -10.4827   -3.6703 H         1 <0>         0.3851
     49 H16        -1.6258  -12.2689   -4.7478 H         1 <0>         0.1463
     50 H17        -3.0444  -14.1986   -6.1350 H         1 <0>         0.1571
     51 H18        -5.0597  -14.1617   -7.9123 H         1 <0>         0.1559
     52 H19        -6.5786  -13.4750   -9.1891 H         1 <0>         0.1301
     53 H20        -8.3447  -12.6661  -10.6911 H         1 <0>         0.1325
     54 H21        -5.6513   -9.4350   -8.0884 H         1 <0>         0.1419
     55 H22         2.5970   -5.9501   -3.2181 H         1 <0>         0.3755
@<TRIPOS>BOND
     1    1    2 1
     2    1   35 1
     3    1   36 1
     4    1   37 1
     5    2    3 1
     6    2   38 1
     7    2   39 1
     8    3    4 1
     9    4    9 ar
    10    4    5 ar
    11    5    6 ar
    12    5   40 1
    13    6    7 ar
    14    6   41 1
    15    7    8 ar
    16    7   10 1
    17    8    9 ar
    18    8   42 1
    19    9   43 1
    20   10   11 1
    21   10   12 1
    22   10   34 1
    23   12   13 1
    24   12   44 1
    25   12   45 1
    26   13   14 1
    27   13   46 1
    28   13   47 1
    29   14   15 2
    30   14   16 am
    31   16   17 1
    32   16   48 1
    33   17   18 2
    34   18   19 1
    35   18   49 1
    36   19   23 1
    37   19   20 2
    38   20   21 1
    39   20   50 1
    40   21   22 2
    41   21   51 1
    42   22   23 1
    43   22   24 1
    44   24   29 ar
    45   24   25 ar
    46   25   26 ar
    47   25   52 1
    48   26   27 ar
    49   26   53 1
    50   27   28 ar
    51   27   33 1
    52   28   29 ar
    53   28   30 1
    54   29   54 1
    55   30   31 2
    56   30   32 1
    57   34   55 1
@<TRIPOS>MOLECULE
ZINC01083499
   50    52     0     0     0
SMALL
USER_CHARGES
6-[[4-(p-tolylsulfonylamino)phenyl]carbamoyl]cyclohex-3-ene-1-carboxylic acid
@<TRIPOS>ATOM
      1 C1          6.5033   -5.7983    1.2130 C.3       1 <0>        -0.1254
      2 C2          5.0762   -6.1366    0.8666 C.ar      1 <0>        -0.0269
      3 C3          4.0370   -5.5017    1.5208 C.ar      1 <0>        -0.1386
      4 C4          2.7280   -5.8112    1.2024 C.ar      1 <0>        -0.0065
      5 C5          2.4580   -6.7554    0.2295 C.ar      1 <0>        -0.6800
      6 C6          3.4971   -7.3941   -0.4210 C.ar      1 <0>        -0.0165
      7 C7          4.8062   -7.0814   -0.1057 C.ar      1 <0>        -0.1456
      8 S1          0.7894   -7.1499   -0.1764 S.o2      1 <0>         2.6910
      9 O1         -0.0099   -6.6996    0.9088 O.2       1 <0>        -0.9482
     10 O2          0.7868   -8.5016   -0.6150 O.2       1 <0>        -0.9600
     11 N1          0.3726   -6.2265   -1.4863 N.pl3     1 <0>        -1.0517
     12 C8          0.3842   -4.8309   -1.3904 C.ar      1 <0>         0.1050
     13 C9          0.9717   -4.0707   -2.3933 C.ar      1 <0>        -0.1062
     14 C10         0.9834   -2.6934   -2.2982 C.ar      1 <0>        -0.1374
     15 C11         0.4078   -2.0682   -1.2001 C.ar      1 <0>         0.1650
     16 C12        -0.1749   -2.8283   -0.1948 C.ar      1 <0>        -0.1014
     17 C13        -0.1915   -4.2054   -0.2920 C.ar      1 <0>        -0.1299
     18 N2          0.4202   -0.6701   -1.1036 N.am      1 <0>        -0.6568
     19 C14        -0.6260   -0.0234   -0.5526 C.2       1 <0>         0.5383
     20 O3         -1.5413   -0.6539   -0.0669 O.2       1 <0>        -0.5278
     21 C15        -0.6587    1.4832   -0.5400 C.3       1 <0>        -0.0880
     22 H1          0.0149    1.8707   -1.3044 H         1 <0>         0.0904
     23 C16        -2.0834    1.9691   -0.8157 C.3       1 <0>        -0.0684
     24 C17        -2.9657    1.6653    0.3657 C.2       1 <0>        -0.1593
     25 C18        -2.5239    1.3765    1.5476 C.2       1 <0>        -0.1265
     26 C19        -1.0685    1.2952    1.9046 C.3       1 <0>        -0.0704
     27 C20        -0.2243    1.9969    0.8385 C.3       1 <0>        -0.1175
     28 H2         -0.3837    3.0737    0.8952 H         1 <0>         0.0833
     29 C21         1.2345    1.6886    1.0574 C.2       1 <0>         0.4685
     30 O4          1.8661    1.1165    0.2009 O.co2     1 <0>        -0.6403
     31 H3          6.8481   -6.4537    2.0128 H         1 <0>         0.0782
     32 H4          7.1329   -5.9357    0.3339 H         1 <0>         0.0717
     33 H5          6.5611   -4.7611    1.5428 H         1 <0>         0.0755
     34 H6          4.2479   -4.7635    2.2804 H         1 <0>         0.1354
     35 H7          1.9161   -5.3152    1.7136 H         1 <0>         0.1433
     36 H8          3.2862   -8.1349   -1.1781 H         1 <0>         0.1366
     37 H9          5.6180   -7.5772   -0.6171 H         1 <0>         0.1309
     38 H10         0.1205   -6.6533   -2.3201 H         1 <0>         0.4229
     39 H11         1.4191   -4.5568   -3.2476 H         1 <0>         0.1270
     40 H12         1.4406   -2.1022   -3.0779 H         1 <0>         0.1290
     41 H13        -0.6189   -2.3421    0.6613 H         1 <0>         0.1459
     42 H14        -0.6484   -4.7964    0.4879 H         1 <0>         0.1536
     43 H15         1.1818   -0.1679   -1.4333 H         1 <0>         0.4239
     44 H16        -2.0708    3.0450   -0.9898 H         1 <0>         0.0757
     45 H17        -2.4716    1.4663   -1.7014 H         1 <0>         0.0663
     46 H18        -4.0351    1.6896    0.2168 H         1 <0>         0.0944
     47 H19        -3.2476    1.1824    2.3253 H         1 <0>         0.0946
     48 H20        -0.7706    0.2487    1.9703 H         1 <0>         0.0700
     49 H21        -0.9075    1.7779    2.8685 H         1 <0>         0.0734
     50 O5          1.8320    2.0495    2.2038 O.co2     1 <0>        -0.7605
@<TRIPOS>BOND
     1    1    2 1
     2    1   31 1
     3    1   32 1
     4    1   33 1
     5    2    7 ar
     6    2    3 ar
     7    3    4 ar
     8    3   34 1
     9    4    5 ar
    10    4   35 1
    11    5    6 ar
    12    5    8 1
    13    6    7 ar
    14    6   36 1
    15    7   37 1
    16    8    9 2
    17    8   10 2
    18    8   11 1
    19   11   12 1
    20   11   38 1
    21   12   17 ar
    22   12   13 ar
    23   13   14 ar
    24   13   39 1
    25   14   15 ar
    26   14   40 1
    27   15   16 ar
    28   15   18 1
    29   16   17 ar
    30   16   41 1
    31   17   42 1
    32   18   19 am
    33   18   43 1
    34   19   20 2
    35   19   21 1
    36   21   22 1
    37   21   27 1
    38   21   23 1
    39   23   24 1
    40   23   44 1
    41   23   45 1
    42   24   25 2
    43   24   46 1
    44   25   26 1
    45   25   47 1
    46   26   27 1
    47   26   48 1
    48   26   49 1
    49   27   28 1
    50   27   29 1
    51   29   30 2
    52   29   50 1
@<TRIPOS>MOLECULE
ZINC13251114
   49    51     0     0     0
SMALL
USER_CHARGES
1-[2-[[4-[(4-chlorophenyl)sulfamoyl]phenyl]amino]-2-oxo-ethyl]cyclopentane-1-carboxylic acid
@<TRIPOS>ATOM
      1 C1          5.8673   -2.8849    0.7485 C.ar      1 <0>        -0.1417
      2 C2          4.6506   -3.1874    0.1692 C.ar      1 <0>         0.0075
      3 C3          4.1147   -2.3519   -0.7936 C.ar      1 <0>        -0.7045
      4 C4          4.7974   -1.2144   -1.1836 C.ar      1 <0>         0.0013
      5 C5          6.0122   -0.9037   -0.6047 C.ar      1 <0>        -0.1771
      6 C6          6.5529   -1.7404    0.3628 C.ar      1 <0>         0.2266
      7 N1          7.7855   -1.4308    0.9480 N.am      1 <0>        -0.6877
      8 C7          8.6221   -2.4198    1.3204 C.2       1 <0>         0.5074
      9 O1          8.3493   -3.5735    1.0641 O.2       1 <0>        -0.4706
     10 C8          9.8964   -2.0921    2.0551 C.3       1 <0>        -0.1075
     11 C9         10.7032   -3.3736    2.2733 C.3       1 <0>        -0.0928
     12 C10        12.0407   -3.0442    2.9679 C.3       1 <0>        -0.1006
     13 C11        13.0567   -4.0142    2.3152 C.3       1 <0>        -0.1216
     14 C12        12.5970   -4.0465    0.8365 C.3       1 <0>        -0.1222
     15 C13        11.0570   -4.0109    0.9181 C.3       1 <0>        -0.1052
     16 C14         9.9116   -4.3455    3.1099 C.2       1 <0>         0.4839
     17 O2          9.7175   -5.4688    2.7094 O.co2     1 <0>        -0.6208
     18 S1          2.5622   -2.7415   -1.5302 S.o2      1 <0>         2.6931
     19 O3          2.3294   -4.1210   -1.2814 O.2       1 <0>        -0.9489
     20 O4          2.5876   -2.1978   -2.8428 O.2       1 <0>        -0.9538
     21 N2          1.4009   -1.9073   -0.6948 N.pl3     1 <0>        -1.0580
     22 C15         1.2060   -2.1550    0.6666 C.ar      1 <0>         0.1499
     23 C16         1.0833   -1.0951    1.5560 C.ar      1 <0>        -0.1170
     24 C17         0.8912   -1.3428    2.9010 C.ar      1 <0>        -0.0927
     25 C18         0.8210   -2.6453    3.3629 C.ar      1 <0>        -0.0426
     26 C19         0.9429   -3.7031    2.4791 C.ar      1 <0>        -0.0844
     27 C20         1.1351   -3.4613    1.1330 C.ar      1 <0>        -0.1391
     28 Cl1         0.5795   -2.9529    5.0543 Cl        1 <0>        -0.0665
     29 H1          6.2850   -3.5374    1.5009 H         1 <0>         0.1511
     30 H2          4.1169   -4.0773    0.4688 H         1 <0>         0.1426
     31 H3          4.3783   -0.5662   -1.9391 H         1 <0>         0.1387
     32 H4          6.5429   -0.0129   -0.9068 H         1 <0>         0.1345
     33 H5          8.0380   -0.5044    1.0858 H         1 <0>         0.4107
     34 H6         10.4845   -1.3882    1.4664 H         1 <0>         0.0815
     35 H7          9.6550   -1.6460    3.0200 H         1 <0>         0.1036
     36 H8         12.3248   -2.0093    2.7772 H         1 <0>         0.0557
     37 H9         11.9700   -3.2301    4.0396 H         1 <0>         0.0708
     38 H10        12.9869   -5.0055    2.7632 H         1 <0>         0.0659
     39 H11        14.0721   -3.6262    2.3958 H         1 <0>         0.0568
     40 H12        12.9323   -4.9639    0.3527 H         1 <0>         0.0564
     41 H13        12.9710   -3.1734    0.3016 H         1 <0>         0.0528
     42 H14        10.6568   -5.0234    0.8659 H         1 <0>         0.0906
     43 H15        10.6538   -3.4072    0.1050 H         1 <0>         0.0417
     44 H16         0.8559   -1.2469   -1.1505 H         1 <0>         0.4266
     45 H17         1.1377   -0.0784    1.1960 H         1 <0>         0.1378
     46 H18         0.8002   -0.5191    3.5936 H         1 <0>         0.1383
     47 H19         0.8876   -4.7187    2.8424 H         1 <0>         0.1427
     48 H20         1.2298   -4.2873    0.4437 H         1 <0>         0.1653
     49 O5          9.4222   -3.9632    4.2999 O.co2     1 <0>        -0.7787
@<TRIPOS>BOND
     1    1    6 ar
     2    1    2 ar
     3    1   29 1
     4    2    3 ar
     5    2   30 1
     6    3    4 ar
     7    3   18 1
     8    4    5 ar
     9    4   31 1
    10    5    6 ar
    11    5   32 1
    12    6    7 1
    13    7    8 am
    14    7   33 1
    15    8    9 2
    16    8   10 1
    17   10   11 1
    18   10   34 1
    19   10   35 1
    20   11   15 1
    21   11   12 1
    22   11   16 1
    23   12   13 1
    24   12   36 1
    25   12   37 1
    26   13   14 1
    27   13   38 1
    28   13   39 1
    29   14   15 1
    30   14   40 1
    31   14   41 1
    32   15   42 1
    33   15   43 1
    34   16   17 2
    35   16   49 1
    36   18   19 2
    37   18   20 2
    38   18   21 1
    39   21   22 1
    40   21   44 1
    41   22   27 ar
    42   22   23 ar
    43   23   24 ar
    44   23   45 1
    45   24   25 ar
    46   24   46 1
    47   25   26 ar
    48   25   28 1
    49   26   27 ar
    50   26   47 1
    51   27   48 1
@<TRIPOS>MOLECULE
ZINC13588829
   38    39     0     0     0
SMALL
USER_CHARGES
4-chloro-N-[(1R)-2,2,2-trichloro-1-[[(cyanoamino)-(3-pyridylamino)methylene]amino]ethyl]benzamide
@<TRIPOS>ATOM
      1 C1         -3.2217    6.0438    0.9226 C.ar      1 <0>        -0.1266
      2 C2         -2.0814    5.3027    0.6580 C.ar      1 <0>        -0.1301
      3 C3         -2.2254    3.9486    0.3669 C.ar      1 <0>         0.1687
      4 C4         -3.4979    3.3917    0.3636 C.ar      1 <0>        -0.0597
      5 N1         -4.5562    4.1320    0.6258 N.ar      1 <0>        -0.4502
      6 C5         -4.4540    5.4180    0.8999 C.ar      1 <0>         0.0051
      7 N2         -1.1045    3.1595    0.0875 N.2       1 <0>        -0.6890
      8 C6         -1.0955    1.8284    0.4372 C.2       1 <0>         0.6324
      9 N3         -2.1870    1.2596    0.8632 N.pl3     1 <0>        -0.7346
     10 C7         -2.1328   -0.0805    1.4524 C.3       1 <0>         0.3600
     11 H1         -1.0771   -0.3433    1.6151 H         1 <0>         0.1811
     12 C8         -2.8300   -1.0753    0.5222 C.3       1 <0>         0.1312
     13 Cl1        -1.9975   -1.0877   -1.0770 Cl        1 <0>        -0.0488
     14 Cl2        -2.7632   -2.7246    1.2474 Cl        1 <0>        -0.0889
     15 Cl3        -4.5510   -0.5856    0.3000 Cl        1 <0>        -0.1073
     16 N4         -2.8092   -0.0704    2.7518 N.am      1 <0>        -0.7390
     17 C9         -2.0856   -0.0982    3.8885 C.2       1 <0>         0.5682
     18 O1         -0.8716   -0.1317    3.8355 O.2       1 <0>        -0.5062
     19 C10        -2.7680   -0.0880    5.1993 C.ar      1 <0>        -0.1214
     20 C11        -4.1620   -0.0438    5.2634 C.ar      1 <0>        -0.0717
     21 C12        -4.7933   -0.0412    6.4894 C.ar      1 <0>        -0.1165
     22 C13        -4.0469   -0.0694    7.6559 C.ar      1 <0>        -0.0134
     23 C14        -2.6635   -0.1071    7.5987 C.ar      1 <0>        -0.1173
     24 C15        -2.0211   -0.1168    6.3785 C.ar      1 <0>        -0.0454
     25 Cl4        -4.8485   -0.0581    9.1957 Cl        1 <0>        -0.0661
     26 N5          0.0698    1.0965    0.3365 N.2       1 <0>        -0.6260
     27 C16         1.1832    1.6641   -0.1870 C.1       1 <0>         0.4249
     28 N6          2.1167    2.1400   -0.6259 N.1       1 <0>        -0.5674
     29 H2         -3.1482    7.0973    1.1484 H         1 <0>         0.1212
     30 H3         -1.1053    5.7646    0.6734 H         1 <0>         0.1248
     31 H4         -3.6213    2.3415    0.1436 H         1 <0>         0.1571
     32 H5         -5.3457    5.9901    1.1098 H         1 <0>         0.1397
     33 H6         -3.9077   -0.0401    2.7998 H         1 <0>         0.4150
     34 H7         -4.7448   -0.0166    4.3546 H         1 <0>         0.1354
     35 H8         -5.8717   -0.0123    6.5402 H         1 <0>         0.1406
     36 H9         -2.0867   -0.1293    8.5115 H         1 <0>         0.1409
     37 H10        -0.9424   -0.1469    6.3352 H         1 <0>         0.1484
     38 H11        -3.1496    1.7855    0.7805 H         1 <0>         0.4311
@<TRIPOS>BOND
     1    1    6 ar
     2    1    2 ar
     3    1   29 1
     4    2    3 ar
     5    2   30 1
     6    3    4 ar
     7    3    7 1
     8    4    5 ar
     9    4   31 1
    10    5    6 ar
    11    6   32 1
    12    7    8 1
    13    8    9 1
    14    8   26 2
    15    9   10 1
    16    9   38 1
    17   10   11 1
    18   10   12 1
    19   10   16 1
    20   12   13 1
    21   12   14 1
    22   12   15 1
    23   16   17 am
    24   16   33 1
    25   17   18 2
    26   17   19 1
    27   19   24 ar
    28   19   20 ar
    29   20   21 ar
    30   20   34 1
    31   21   22 ar
    32   21   35 1
    33   22   23 ar
    34   22   25 1
    35   23   24 ar
    36   23   36 1
    37   24   37 1
    38   26   27 1
    39   27   28 3
@<TRIPOS>MOLECULE
ZINC38664621
   56    59     0     0     0
SMALL
USER_CHARGES

@<TRIPOS>ATOM
      1 C1         -1.9563   -7.8067    0.7005 C.3       1 <0>        -0.1392
      2 C2         -0.7445   -7.2496    1.4502 C.3       1 <0>        -0.1058
      3 C3         -0.3669   -5.8862    0.8676 C.3       1 <0>        -0.0824
      4 C4          0.7403   -5.2579    1.7162 C.3       1 <0>        -0.1064
      5 C5          1.0403   -3.8489    1.2010 C.3       1 <0>         0.2057
      6 H1          1.3180   -3.8839    0.1475 H         1 <0>         0.0628
      7 N1         -0.1374   -2.9711    1.3923 N.2       1 <0>        -0.7820
      8 C6          0.4524   -1.6093    1.3864 C.3       1 <0>         0.1878
      9 H2          0.6213   -1.2685    0.3649 H         1 <0>         0.0710
     10 C7          1.7944   -1.7959    2.1264 C.3       1 <0>        -0.0005
     11 H3          1.6859   -1.5268    3.1771 H         1 <0>         0.1246
     12 N2          2.1248   -3.2326    1.9964 N.4       1 <0>        -0.3904
     13 C8          3.4093   -3.3930    1.3019 C.3       1 <0>         0.0306
     14 C9          3.7426   -4.8587    1.1944 C.ar      1 <0>        -0.1235
     15 C10         4.0974   -5.5695    2.3269 C.ar      1 <0>        -0.1299
     16 C11         4.4036   -6.9119    2.2346 C.ar      1 <0>        -0.1038
     17 C12         4.3550   -7.5516    0.9968 C.ar      1 <0>        -0.0111
     18 C13         3.9968   -6.8301   -0.1412 C.ar      1 <0>        -0.0035
     19 C14         3.6872   -5.4894   -0.0356 C.ar      1 <0>        -0.0921
     20 C15         4.6833   -8.9931    0.8909 C.ar      1 <0>        -0.0533
     21 C16         5.8814   -9.4781    1.4083 C.ar      1 <0>        -0.1068
     22 C17         6.1832  -10.8212    1.3076 C.ar      1 <0>        -0.1398
     23 C18         5.3005  -11.6939    0.6936 C.ar      1 <0>        -0.1170
     24 C19         4.1085  -11.2311    0.1751 C.ar      1 <0>        -0.1072
     25 C20         3.7847   -9.8789    0.2730 C.ar      1 <0>         0.0637
     26 C21         2.5061   -9.3787   -0.2759 C.2       1 <0>         0.0598
     27 N3          1.5945  -10.0850   -0.9476 N.2       1 <0>        -0.3671
     28 N4          0.6303   -9.2845   -1.2500 N.2       1 <0>        -0.1928
     29 N5          0.8962   -8.1091   -0.7984 N.2       1 <0>        -0.1671
     30 N6          2.0338   -8.1333   -0.1922 N.2       1 <0>        -0.3489
     31 C22         2.8822   -0.9418    1.4721 C.3       1 <0>         0.0667
     32 O1          2.9242   -1.2160    0.0703 O.3       1 <0>        -0.5570
     33 Cl1        -0.6105   -0.4531    2.2721 Cl        1 <0>        -0.2245
     34 H4         -1.7104   -7.9183   -0.3555 H         1 <0>         0.0672
     35 H5         -2.2254   -8.7780    1.1156 H         1 <0>         0.0328
     36 H6         -2.7965   -7.1206    0.8073 H         1 <0>         0.0375
     37 H7         -0.9904   -7.1380    2.5062 H         1 <0>         0.0286
     38 H8          0.0957   -7.9357    1.3433 H         1 <0>         0.0642
     39 H9         -0.0126   -6.0138   -0.1553 H         1 <0>         0.0752
     40 H10        -1.2410   -5.2351    0.8708 H         1 <0>         0.0580
     41 H11         0.4150   -5.2033    2.7551 H         1 <0>         0.0423
     42 H12         1.6405   -5.8687    1.6490 H         1 <0>         0.0713
     43 H13         3.3386   -2.9622    0.3031 H         1 <0>         0.1520
     44 H14         4.1920   -2.8826    1.8631 H         1 <0>         0.0970
     45 H15         4.1350   -5.0727    3.2851 H         1 <0>         0.1096
     46 H16         4.6808   -7.4657    3.1194 H         1 <0>         0.1162
     47 H17         3.9575   -7.3204   -1.1026 H         1 <0>         0.1150
     48 H18         3.4053   -4.9305   -0.9157 H         1 <0>         0.1162
     49 H19         6.5748   -8.8033    1.8881 H         1 <0>         0.1183
     50 H20         7.1137  -11.1937    1.7098 H         1 <0>         0.1162
     51 H21         5.5467  -12.7429    0.6199 H         1 <0>         0.1179
     52 H22         3.4248  -11.9171   -0.3027 H         1 <0>         0.1291
     53 H23         2.6594    0.1135    1.6294 H         1 <0>         0.0776
     54 H24         3.8481   -1.1796    1.9179 H         1 <0>         0.0579
     55 H25         3.5928   -0.7085   -0.4099 H         1 <0>         0.3857
     56 H26         2.1675   -3.6597    2.9096 H         1 <0>         0.3936
@<TRIPOS>BOND
     1    1    2 1
     2    1   34 1
     3    1   35 1
     4    1   36 1
     5    2    3 1
     6    2   37 1
     7    2   38 1
     8    3    4 1
     9    3   39 1
    10    3   40 1
    11    4    5 1
    12    4   41 1
    13    4   42 1
    14    5    6 1
    15    5   12 1
    16    5    7 1
    17    7    8 1
    18    8    9 1
    19    8   10 1
    20    8   33 1
    21   10   11 1
    22   10   12 1
    23   10   31 1
    24   12   13 1
    25   12   56 1
    26   13   14 1
    27   13   43 1
    28   13   44 1
    29   14   19 ar
    30   14   15 ar
    31   15   16 ar
    32   15   45 1
    33   16   17 ar
    34   16   46 1
    35   17   18 ar
    36   17   20 1
    37   18   19 ar
    38   18   47 1
    39   19   48 1
    40   20   25 ar
    41   20   21 ar
    42   21   22 ar
    43   21   49 1
    44   22   23 ar
    45   22   50 1
    46   23   24 ar
    47   23   51 1
    48   24   25 ar
    49   24   52 1
    50   25   26 1
    51   26   27 1
    52   26   30 2
    53   27   28 1
    54   28   29 2
    55   29   30 1
    56   31   32 1
    57   31   53 1
    58   31   54 1
    59   32   55 1
@<TRIPOS>MOLECULE
ZINC45772656
   45    47     0     0     0
SMALL
USER_CHARGES

@<TRIPOS>ATOM
      1 C1         -2.4399   -1.3278   -1.5820 C.3       1 <0>        -0.1135
      2 C2         -1.1777   -1.3582   -0.7592 C.ar      1 <0>        -0.0739
      3 C3         -0.0519   -0.6842   -1.1961 C.ar      1 <0>        -0.1376
      4 C4          1.1077   -0.7100   -0.4438 C.ar      1 <0>        -0.1021
      5 C5          1.1446   -1.4095    0.7470 C.ar      1 <0>        -0.1366
      6 C6          0.0165   -2.0865    1.1876 C.ar      1 <0>         0.1107
      7 C7         -1.1480   -2.0543    0.4332 C.ar      1 <0>        -0.1454
      8 O1          0.0503   -2.7757    2.3581 O.3       1 <0>        -0.2331
      9 C8         -0.0367   -4.1319    2.3034 C.ar      1 <0>         0.0623
     10 C9         -0.0261   -4.7792    1.0787 C.ar      1 <0>        -0.1434
     11 C10        -0.1141   -6.1580    1.0240 C.ar      1 <0>        -0.1791
     12 C11        -0.2134   -6.8952    2.1907 C.ar      1 <0>         0.0075
     13 C12        -0.2247   -6.2561    3.4174 C.ar      1 <0>        -0.2360
     14 C13        -0.1309   -4.8735    3.4792 C.ar      1 <0>         0.2804
     15 N1         -0.1363   -4.2248    4.7191 N.2       1 <0>        -1.0676
     16 S1         -0.2484   -5.1082    6.1153 S.o2      1 <0>         2.5961
     17 O2         -1.5367   -5.7079    6.1142 O.2       1 <0>        -1.0184
     18 O3          0.9468   -5.8709    6.2103 O.2       1 <0>        -1.0216
     19 C14        -0.2254   -3.9667    7.4574 C.ar      1 <0>        -0.6344
     20 C15         0.9779   -3.5930    8.0264 C.ar      1 <0>         0.0362
     21 C16         0.9960   -2.6976    9.0791 C.ar      1 <0>        -0.1631
     22 C17        -0.1892   -2.1753    9.5628 C.ar      1 <0>         0.0149
     23 C18        -1.3921   -2.5483    8.9934 C.ar      1 <0>        -0.7014
     24 C19        -1.4099   -3.4407    7.9375 C.ar      1 <0>         0.0775
     25 S2         -2.9026   -1.8831    9.6102 S.o2      1 <0>         2.7036
     26 O4         -3.9248   -2.8077    9.2643 O.2       1 <0>        -0.9588
     27 O5         -2.6546   -1.4888   10.9527 O.2       1 <0>        -0.9680
     28 N2         -3.2108   -0.4965    8.7589 N.pl3     1 <0>        -1.2495
     29 Cl1        -0.3248   -8.6260    2.1148 Cl        1 <0>        -0.1000
     30 H1         -3.0501   -0.4766   -1.2800 H         1 <0>         0.0694
     31 H2         -2.1836   -1.2350   -2.6373 H         1 <0>         0.0651
     32 H3         -2.9991   -2.2500   -1.4237 H         1 <0>         0.0675
     33 H4         -0.0786   -0.1370   -2.1269 H         1 <0>         0.1201
     34 H5          1.9856   -0.1831   -0.7874 H         1 <0>         0.1246
     35 H6          2.0508   -1.4296    1.3342 H         1 <0>         0.1294
     36 H7         -2.0289   -2.5765    0.7763 H         1 <0>         0.1292
     37 H8          0.0507   -4.2066    0.1662 H         1 <0>         0.1238
     38 H9         -0.1056   -6.6607    0.0682 H         1 <0>         0.1194
     39 H10        -0.3027   -6.8336    4.3267 H         1 <0>         0.1177
     40 H11         1.9038   -4.0009    7.6485 H         1 <0>         0.1474
     41 H12         1.9359   -2.4062    9.5241 H         1 <0>         0.1402
     42 H13        -0.1752   -1.4762   10.3859 H         1 <0>         0.1455
     43 H14        -2.3495   -3.7292    7.4901 H         1 <0>         0.1564
     44 H15        -2.5956   -0.2047    8.0681 H         1 <0>         0.4192
     45 H16        -4.0066    0.0238    8.9511 H         1 <0>         0.4194
@<TRIPOS>BOND
     1    1    2 1
     2    1   30 1
     3    1   31 1
     4    1   32 1
     5    2    7 ar
     6    2    3 ar
     7    3    4 ar
     8    3   33 1
     9    4    5 ar
    10    4   34 1
    11    5    6 ar
    12    5   35 1
    13    6    7 ar
    14    6    8 1
    15    7   36 1
    16    8    9 1
    17    9   14 ar
    18    9   10 ar
    19   10   11 ar
    20   10   37 1
    21   11   12 ar
    22   11   38 1
    23   12   13 ar
    24   12   29 1
    25   13   14 ar
    26   13   39 1
    27   14   15 1
    28   15   16 1
    29   16   17 2
    30   16   18 2
    31   16   19 1
    32   19   24 ar
    33   19   20 ar
    34   20   21 ar
    35   20   40 1
    36   21   22 ar
    37   21   41 1
    38   22   23 ar
    39   22   42 1
    40   23   24 ar
    41   23   25 1
    42   24   43 1
    43   25   26 2
    44   25   27 2
    45   25   28 1
    46   28   44 1
    47   28   45 1
@<TRIPOS>MOLECULE
ZINC12382140
   51    52     0     0     0
SMALL
USER_CHARGES
(2S)-2-[[(E)-2-[(4-bromobenzoyl)amino]-3-(4-fluorophenyl)prop-2-enoyl]amino]-4-methyl-pentanoic acid
@<TRIPOS>ATOM
      1 C1          2.7219    4.0103   -4.5243 C.3       1 <0>        -0.1433
      2 C2          2.3403    3.9754   -3.0431 C.3       1 <0>        -0.0943
      3 C3          3.4233    3.2363   -2.2547 C.3       1 <0>        -0.1449
      4 C4          2.2121    5.4059   -2.5156 C.3       1 <0>        -0.1044
      5 C5          1.7100    5.3736   -1.0707 C.3       1 <0>         0.1078
      6 H1          2.3596    4.7327   -0.4746 H         1 <0>         0.0854
      7 C6          1.7234    6.7695   -0.5029 C.2       1 <0>         0.4531
      8 O1          0.6967    7.2730   -0.1129 O.co2     1 <0>        -0.6028
      9 N1          0.3432    4.8472   -1.0403 N.am      1 <0>        -0.6800
     10 C7         -0.1522    4.3237    0.0986 C.2       1 <0>         0.5792
     11 O2          0.5051    4.3617    1.1218 O.2       1 <0>        -0.5234
     12 C8         -1.4861    3.7071    0.1045 C.2       1 <0>         0.1233
     13 C9         -1.6537    2.4524   -0.3740 C.2       1 <0>        -0.1725
     14 C10        -0.4827    1.6472   -0.7522 C.ar      1 <0>        -0.0489
     15 C11        -0.5539    0.7721   -1.8416 C.ar      1 <0>        -0.0824
     16 C12         0.5453    0.0163   -2.1871 C.ar      1 <0>        -0.1556
     17 C13         1.7199    0.1213   -1.4577 C.ar      1 <0>         0.0945
     18 C14         1.7974    0.9870   -0.3772 C.ar      1 <0>        -0.1409
     19 C15         0.7056    1.7486   -0.0209 C.ar      1 <0>        -0.0911
     20 F1          2.7938   -0.6229   -1.8015 F         1 <0>        -0.1437
     21 N2         -2.5823    4.4170    0.6047 N.am      1 <0>        -0.6596
     22 C16        -2.3997    5.6236    1.1767 C.2       1 <0>         0.5162
     23 O3         -1.2976    6.1370    1.1742 O.2       1 <0>        -0.4061
     24 C17        -3.5390    6.3227    1.8067 C.ar      1 <0>        -0.1045
     25 C18        -4.8070    5.7383    1.8061 C.ar      1 <0>        -0.0856
     26 C19        -5.8652    6.3933    2.4003 C.ar      1 <0>        -0.0999
     27 C20        -5.6743    7.6330    2.9872 C.ar      1 <0>        -0.0710
     28 C21        -4.4203    8.2203    2.9860 C.ar      1 <0>        -0.0951
     29 C22        -3.3530    7.5728    2.4000 C.ar      1 <0>        -0.0470
     30 Br1        -7.1321    8.5273    3.7940 Br        1 <0>        -0.0482
     31 H2          3.6740    4.5277   -4.6421 H         1 <0>         0.0536
     32 H3          2.8132    2.9912   -4.9001 H         1 <0>         0.0481
     33 H4          1.9503    4.5369   -5.0860 H         1 <0>         0.0502
     34 H5          1.3881    3.4581   -2.9253 H         1 <0>         0.0648
     35 H6          4.3754    3.7536   -2.3725 H         1 <0>         0.0536
     36 H7          3.1514    3.2114   -1.1994 H         1 <0>         0.0575
     37 H8          3.5146    2.2172   -2.6304 H         1 <0>         0.0455
     38 H9          1.5049    5.9590   -3.1337 H         1 <0>         0.0574
     39 H10         3.1856    5.8948   -2.5512 H         1 <0>         0.0857
     40 H11        -0.2053    4.8754   -1.8398 H         1 <0>         0.3876
     41 H12        -2.6474    2.0424   -0.4781 H         1 <0>         0.1344
     42 H13        -1.4684    0.6889   -2.4101 H         1 <0>         0.1315
     43 H14         0.4918   -0.6593   -3.0280 H         1 <0>         0.1315
     44 H15         2.7154    1.0643    0.1865 H         1 <0>         0.1335
     45 H16         0.7671    2.4219    0.8213 H         1 <0>         0.1537
     46 H17        -3.4741    4.0409    0.5400 H         1 <0>         0.4075
     47 H18        -4.9580    4.7735    1.3448 H         1 <0>         0.1339
     48 H19        -6.8456    5.9404    2.4044 H         1 <0>         0.1386
     49 H20        -4.2777    9.1874    3.4453 H         1 <0>         0.1417
     50 H21        -2.3752    8.0315    2.4004 H         1 <0>         0.1536
     51 O4          2.8761    7.4535   -0.4305 O.co2     1 <0>        -0.7782
@<TRIPOS>BOND
     1    1    2 1
     2    1   31 1
     3    1   32 1
     4    1   33 1
     5    2    3 1
     6    2    4 1
     7    2   34 1
     8    3   35 1
     9    3   36 1
    10    3   37 1
    11    4    5 1
    12    4   38 1
    13    4   39 1
    14    5    6 1
    15    5    7 1
    16    5    9 1
    17    7    8 2
    18    7   51 1
    19    9   10 am
    20    9   40 1
    21   10   11 2
    22   10   12 1
    23   12   13 2
    24   12   21 1
    25   13   14 1
    26   13   41 1
    27   14   19 ar
    28   14   15 ar
    29   15   16 ar
    30   15   42 1
    31   16   17 ar
    32   16   43 1
    33   17   18 ar
    34   17   20 1
    35   18   19 ar
    36   18   44 1
    37   19   45 1
    38   21   22 am
    39   21   46 1
    40   22   23 2
    41   22   24 1
    42   24   29 ar
    43   24   25 ar
    44   25   26 ar
    45   25   47 1
    46   26   27 ar
    47   26   48 1
    48   27   28 ar
    49   27   30 1
    50   28   29 ar
    51   28   49 1
    52   29   50 1
@<TRIPOS>MOLECULE
ZINC13262375
   50    52     0     0     0
SMALL
USER_CHARGES
(E)-3-[4-[[2-(cyclopentylcarbamoyl)phenyl]sulfamoyl]phenyl]prop-2-enoic acid
@<TRIPOS>ATOM
      1 C1         -0.1261    0.2964   -0.4986 C.ar      1 <0>        -0.1450
      2 C2          1.0177   -0.4821   -0.4154 C.ar      1 <0>        -0.0557
      3 C3          2.2546    0.1081   -0.2577 C.ar      1 <0>        -0.1885
      4 C4          2.3610    1.4915   -0.1808 C.ar      1 <0>         0.2270
      5 C5          1.2048    2.2825   -0.2647 C.ar      1 <0>        -0.1690
      6 C6         -0.0405    1.6693   -0.4248 C.ar      1 <0>        -0.0614
      7 C7          1.3036    3.7514   -0.1854 C.2       1 <0>         0.5668
      8 O1          2.3893    4.2811   -0.0461 O.2       1 <0>        -0.5371
      9 N1          0.1906    4.5071   -0.2674 N.am      1 <0>        -0.7197
     10 C8          0.2888    5.9667   -0.1886 C.3       1 <0>         0.1390
     11 C9          0.2269    6.4218    1.2841 C.3       1 <0>        -0.1348
     12 C10        -0.5872    7.7388    1.2407 C.3       1 <0>        -0.1247
     13 C11        -1.6615    7.4412    0.1654 C.3       1 <0>        -0.1240
     14 C12        -0.9119    6.6149   -0.8999 C.3       1 <0>        -0.1331
     15 N2          3.6049    2.0881   -0.0216 N.pl3     1 <0>        -1.0409
     16 S1          4.9373    1.4333   -0.7554 S.o2      1 <0>         2.6900
     17 O2          6.0137    2.3299   -0.5176 O.2       1 <0>        -0.9498
     18 O3          4.9840    0.0669   -0.3678 O.2       1 <0>        -0.9545
     19 C13         4.6387    1.4542   -2.4918 C.ar      1 <0>        -0.6939
     20 C14         4.0308    0.3691   -3.0989 C.ar      1 <0>        -0.0124
     21 C15         3.7886    0.3802   -4.4563 C.ar      1 <0>        -0.1452
     22 C16         4.1689    1.4873   -5.2216 C.ar      1 <0>         0.0329
     23 C17         4.7879    2.5775   -4.6016 C.ar      1 <0>        -0.1397
     24 C18         5.0185    2.5533   -3.2424 C.ar      1 <0>        -0.0107
     25 C19         3.9195    1.5048   -6.6719 C.2       1 <0>        -0.1420
     26 C20         3.3222    0.4512   -7.2665 C.2       1 <0>        -0.1161
     27 C21         3.0744    0.4686   -8.7076 C.2       1 <0>         0.4705
     28 O4          3.4068    1.4328   -9.3702 O.co2     1 <0>        -0.6286
     29 H1         -1.0895   -0.1758   -0.6223 H         1 <0>         0.1325
     30 H2          0.9401   -1.5577   -0.4747 H         1 <0>         0.1369
     31 H3          3.1409   -0.5056   -0.1937 H         1 <0>         0.1692
     32 H4         -0.9345    2.2712   -0.4950 H         1 <0>         0.1282
     33 H5         -0.6754    4.0845   -0.3785 H         1 <0>         0.3996
     34 H6          1.2196    6.3032   -0.6454 H         1 <0>         0.0947
     35 H7         -0.2854    5.6764    1.8924 H         1 <0>         0.0697
     36 H8          1.2299    6.6058    1.6690 H         1 <0>         0.0719
     37 H9          0.0441    8.5733    0.9355 H         1 <0>         0.0698
     38 H10        -1.0519    7.9376    2.2064 H         1 <0>         0.0682
     39 H11        -2.0367    8.3693   -0.2661 H         1 <0>         0.0686
     40 H12        -2.4788    6.8606    0.5931 H         1 <0>         0.0666
     41 H13        -0.5638    7.2666   -1.7013 H         1 <0>         0.0769
     42 H14        -1.5672    5.8435   -1.3044 H         1 <0>         0.0717
     43 H15         3.6934    2.8883    0.5194 H         1 <0>         0.4379
     44 H16         3.7413   -0.4868   -2.5072 H         1 <0>         0.1374
     45 H17         3.3101   -0.4654   -4.9279 H         1 <0>         0.1383
     46 H18         5.0848    3.4358   -5.1860 H         1 <0>         0.1355
     47 H19         5.4963    3.3944   -2.7622 H         1 <0>         0.1376
     48 H20         4.2147    2.3610   -7.2603 H         1 <0>         0.1339
     49 H21         3.0270   -0.4050   -6.6781 H         1 <0>         0.1109
     50 O5          2.4771   -0.5849   -9.3020 O.co2     1 <0>        -0.7553
@<TRIPOS>BOND
     1    1    6 ar
     2    1    2 ar
     3    1   29 1
     4    2    3 ar
     5    2   30 1
     6    3    4 ar
     7    3   31 1
     8    4    5 ar
     9    4   15 1
    10    5    6 ar
    11    5    7 1
    12    6   32 1
    13    7    8 2
    14    7    9 am
    15    9   10 1
    16    9   33 1
    17   10   14 1
    18   10   11 1
    19   10   34 1
    20   11   12 1
    21   11   35 1
    22   11   36 1
    23   12   13 1
    24   12   37 1
    25   12   38 1
    26   13   14 1
    27   13   39 1
    28   13   40 1
    29   14   41 1
    30   14   42 1
    31   15   16 1
    32   15   43 1
    33   16   17 2
    34   16   18 2
    35   16   19 1
    36   19   24 ar
    37   19   20 ar
    38   20   21 ar
    39   20   44 1
    40   21   22 ar
    41   21   45 1
    42   22   23 ar
    43   22   25 1
    44   23   24 ar
    45   23   46 1
    46   24   47 1
    47   25   26 2
    48   25   48 1
    49   26   27 1
    50   26   49 1
    51   27   28 2
    52   27   50 1
@<TRIPOS>MOLECULE
ZINC25932428
   49    51     0     0     0
SMALL
USER_CHARGES
N-[2-[[(4,6-dimethylpyrimidin-2-yl)amino]carbamoyl]phenyl]-3-(trifluoromethyl)benzenesulfonamide
@<TRIPOS>ATOM
      1 C1          0.3236    3.5761  -10.2337 C.3       1 <0>        -0.1071
      2 C2          1.4822    3.9807   -9.3590 C.ar      1 <0>         0.2263
      3 C3          2.7724    3.9929   -9.8652 C.ar      1 <0>        -0.3095
      4 C4          3.8094    4.3719   -9.0272 C.ar      1 <0>         0.2280
      5 N1          3.5385    4.7086   -7.7770 N.ar      1 <0>        -0.5780
      6 C5          2.2936    4.6863   -7.3242 C.ar      1 <0>         0.5808
      7 N2          1.2807    4.3238   -8.0975 N.ar      1 <0>        -0.5875
      8 N3          2.0460    5.0448   -6.0104 N.pl3     1 <0>        -0.4918
      9 N4          0.7358    5.0270   -5.5145 N.am      1 <0>        -0.5400
     10 C6          0.4948    5.3761   -4.2352 C.2       1 <0>         0.5636
     11 O1          1.4144    5.7064   -3.5115 O.2       1 <0>        -0.4990
     12 C7         -0.8840    5.3574   -3.7133 C.ar      1 <0>        -0.1902
     13 C8         -1.9440    4.9781   -4.5411 C.ar      1 <0>        -0.0570
     14 C9         -3.2298    4.9623   -4.0473 C.ar      1 <0>        -0.2069
     15 C10        -3.4794    5.3210   -2.7319 C.ar      1 <0>        -0.0584
     16 C11        -2.4432    5.6923   -1.9004 C.ar      1 <0>        -0.2509
     17 C12        -1.1400    5.7200   -2.3819 C.ar      1 <0>         0.2938
     18 N5         -0.0958    6.0991   -1.5486 N.2       1 <0>        -1.0082
     19 S1         -0.1241    5.6857    0.0547 S.o2      1 <0>         2.5815
     20 O2         -1.3667    6.1433    0.5703 O.2       1 <0>        -1.0352
     21 O3          1.1233    6.0919    0.6010 O.2       1 <0>        -0.9848
     22 C13        -0.1614    3.9261    0.1385 C.ar      1 <0>        -0.6546
     23 C14         1.0209    3.2110    0.1861 C.ar      1 <0>         0.0085
     24 C15         0.9917    1.8308    0.2513 C.ar      1 <0>        -0.1471
     25 C16        -0.2200    1.1651    0.2689 C.ar      1 <0>        -0.0435
     26 C17        -1.4019    1.8797    0.2160 C.ar      1 <0>        -0.2122
     27 C18        -1.3727    3.2606    0.1561 C.ar      1 <0>         0.0232
     28 C19        -2.7225    1.1538    0.2289 C.3       1 <0>         0.5110
     29 F1         -2.4961   -0.2251    0.2977 F         1 <0>        -0.1816
     30 F2         -3.4672    1.5602    1.3413 F         1 <0>        -0.1772
     31 F3         -3.4302    1.4523   -0.9404 F         1 <0>        -0.1725
     32 C20         5.2282    4.4005   -9.5344 C.3       1 <0>        -0.1092
     33 H1          0.6927    3.3291  -11.2401 H         1 <0>         0.0774
     34 H2         -0.3936    4.4075  -10.3000 H         1 <0>         0.0837
     35 H3         -0.1739    2.6964   -9.7995 H         1 <0>         0.0836
     36 H4          2.9657    3.7129  -10.8902 H         1 <0>         0.1381
     37 H5          2.8779    5.3437   -5.3557 H         1 <0>         0.4729
     38 H6         -0.0961    4.7281   -6.1692 H         1 <0>         0.4448
     39 H7         -1.7552    4.6973   -5.5667 H         1 <0>         0.1074
     40 H8         -4.0478    4.6685   -4.6884 H         1 <0>         0.1094
     41 H9         -4.4911    5.3050   -2.3541 H         1 <0>         0.1093
     42 H10        -2.6455    5.9661   -0.8754 H         1 <0>         0.1525
     43 H11         1.9674    3.7310    0.1720 H         1 <0>         0.1438
     44 H12         1.9153    1.2722    0.2881 H         1 <0>         0.1356
     45 H13        -0.2428    0.0865    0.3195 H         1 <0>         0.1363
     46 H14        -2.2962    3.8192    0.1185 H         1 <0>         0.1434
     47 H15         5.9001    4.7247   -8.7260 H         1 <0>         0.0810
     48 H16         5.3023    5.1038  -10.3770 H         1 <0>         0.0834
     49 H17         5.5178    3.3939   -9.8704 H         1 <0>         0.0832
@<TRIPOS>BOND
     1    1    2 1
     2    1   33 1
     3    1   34 1
     4    1   35 1
     5    2    7 ar
     6    2    3 ar
     7    3    4 ar
     8    3   36 1
     9    4    5 ar
    10    4   32 1
    11    5    6 ar
    12    6    7 ar
    13    6    8 1
    14    8    9 1
    15    8   37 1
    16    9   10 am
    17    9   38 1
    18   10   11 2
    19   10   12 1
    20   12   17 ar
    21   12   13 ar
    22   13   14 ar
    23   13   39 1
    24   14   15 ar
    25   14   40 1
    26   15   16 ar
    27   15   41 1
    28   16   17 ar
    29   16   42 1
    30   17   18 1
    31   18   19 1
    32   19   20 2
    33   19   21 2
    34   19   22 1
    35   22   27 ar
    36   22   23 ar
    37   23   24 ar
    38   23   43 1
    39   24   25 ar
    40   24   44 1
    41   25   26 ar
    42   25   45 1
    43   26   27 ar
    44   26   28 1
    45   27   46 1
    46   28   29 1
    47   28   30 1
    48   28   31 1
    49   32   47 1
    50   32   48 1
    51   32   49 1
@<TRIPOS>MOLECULE
ZINC39422249
   52    55     0     0     0
SMALL
USER_CHARGES

@<TRIPOS>ATOM
      1 C1          3.2544    0.0065    0.9134 C.3       1 <0>        -0.1292
      2 C2          2.2493   -1.0854    0.6514 C.ar      1 <0>        -0.0151
      3 C3          2.3049   -1.8094   -0.5216 C.ar      1 <0>        -0.1366
      4 C4          1.3830   -2.8121   -0.7637 C.ar      1 <0>        -0.0804
      5 C5          0.3994   -3.0961    0.1675 C.ar      1 <0>        -0.1421
      6 C6          0.3319   -2.3797    1.3442 C.ar      1 <0>        -0.0574
      7 C7          1.2632   -1.3704    1.5978 C.ar      1 <0>        -0.1273
      8 C8          1.2012   -0.6034    2.8587 C.2       1 <0>         0.5004
      9 O1          2.0278    0.2568    3.0877 O.2       1 <0>        -0.4762
     10 O2          0.2278   -0.8578    3.7547 O.3       1 <0>        -0.2924
     11 C9          0.1385   -0.0524    4.8458 C.ar      1 <0>         0.0692
     12 C10        -0.3278    1.2476    4.7135 C.ar      1 <0>        -0.1214
     13 C11        -0.4181    2.0641    5.8241 C.ar      1 <0>        -0.1087
     14 C12        -0.0438    1.5870    7.0667 C.ar      1 <0>        -0.0399
     15 C13         0.4212    0.2919    7.2012 C.ar      1 <0>        -0.0845
     16 C14         0.5080   -0.5305    6.0946 C.ar      1 <0>        -0.1178
     17 C15        -0.1424    2.4803    8.2764 C.3       1 <0>         0.1269
     18 H1         -0.3818    3.4955    7.9598 H         1 <0>         0.0688
     19 C16         1.1742    2.4801    9.0096 C.2       1 <0>        -0.4228
     20 C17         2.4432    2.4485    8.4235 C.2       1 <0>         0.1104
     21 N1          3.3369    2.4602    9.3789 N.2       1 <0>        -0.3783
     22 N2          2.6673    2.4998   10.6084 N.pl3     1 <0>        -0.5471
     23 C18         1.3394    2.5166   10.3585 C.2       1 <0>         0.4398
     24 O3          0.3495    2.5594   11.2866 O.3       1 <0>        -0.7072
     25 C19         2.7319    2.4070    6.9450 C.3       1 <0>        -0.0760
     26 C20        -1.2266    1.9703    9.1904 C.2       1 <0>        -0.0071
     27 C21        -2.2476    2.6512    9.7153 C.2       1 <0>        -0.0729
     28 N3         -3.0127    1.8491   10.4884 N.2       1 <0>        -0.1255
     29 N4         -2.6258    0.6797   10.5531 N.2       1 <0>        -0.2200
     30 C22        -1.4150    0.5608    9.7230 C.3       1 <0>         0.1692
     31 H2         -1.5734   -0.1423    8.9053 H         1 <0>         0.1042
     32 O4         -0.2957    0.1677   10.5197 O.3       1 <0>        -0.4766
     33 C23        -2.5113    4.1158    9.4781 C.3       1 <0>        -0.0691
     34 H3          4.0529   -0.3791    1.5473 H         1 <0>         0.0792
     35 H4          3.6744    0.3483   -0.0326 H         1 <0>         0.0623
     36 H5          2.7628    0.8402    1.4149 H         1 <0>         0.0973
     37 H6          3.0697   -1.5928   -1.2527 H         1 <0>         0.1321
     38 H7          1.4309   -3.3757   -1.6837 H         1 <0>         0.1288
     39 H8         -0.3172   -3.8801   -0.0277 H         1 <0>         0.1311
     40 H9         -0.4366   -2.6018    2.0698 H         1 <0>         0.1393
     41 H10        -0.6197    1.6210    3.7430 H         1 <0>         0.1222
     42 H11        -0.7811    3.0762    5.7216 H         1 <0>         0.1295
     43 H12         0.7130   -0.0785    8.1729 H         1 <0>         0.1381
     44 H13         0.8671   -1.5435    6.2010 H         1 <0>         0.1262
     45 H14         2.6980    3.4183    6.5397 H         1 <0>         0.0570
     46 H15         3.7222    1.9825    6.7799 H         1 <0>         0.0522
     47 H16         1.9844    1.7903    6.4460 H         1 <0>         0.0732
     48 H17        -0.3665   -0.7253   10.8840 H         1 <0>         0.3632
     49 H18        -3.1523    4.2327    8.6043 H         1 <0>         0.0622
     50 H19        -3.0058    4.5420   10.3510 H         1 <0>         0.0690
     51 H20        -1.5667    4.6321    9.3074 H         1 <0>         0.0724
     52 H21         3.0833    2.5157   11.4846 H         1 <0>         0.4072
@<TRIPOS>BOND
     1    1    2 1
     2    1   34 1
     3    1   35 1
     4    1   36 1
     5    2    7 ar
     6    2    3 ar
     7    3    4 ar
     8    3   37 1
     9    4    5 ar
    10    4   38 1
    11    5    6 ar
    12    5   39 1
    13    6    7 ar
    14    6   40 1
    15    7    8 1
    16    8    9 2
    17    8   10 1
    18   10   11 1
    19   11   16 ar
    20   11   12 ar
    21   12   13 ar
    22   12   41 1
    23   13   14 ar
    24   13   42 1
    25   14   15 ar
    26   14   17 1
    27   15   16 ar
    28   15   43 1
    29   16   44 1
    30   17   18 1
    31   17   19 1
    32   17   26 1
    33   19   23 2
    34   19   20 1
    35   20   25 1
    36   20   21 2
    37   21   22 1
    38   22   23 1
    39   22   52 1
    40   23   24 1
    41   25   45 1
    42   25   46 1
    43   25   47 1
    44   26   30 1
    45   26   27 2
    46   27   28 1
    47   27   33 1
    48   28   29 2
    49   29   30 1
    50   30   31 1
    51   30   32 1
    52   32   48 1
    53   33   49 1
    54   33   50 1
    55   33   51 1
@<TRIPOS>MOLECULE
ZINC58330778
   51    53     0     0     0
SMALL
USER_CHARGES

@<TRIPOS>ATOM
      1 C1         -0.6448    1.2600   -0.0972 C.3       1 <0>        -0.1189
      2 C2         -0.4762   -0.2356   -0.0210 C.ar      1 <0>        -0.0978
      3 C3         -0.7130   -1.0145   -1.1391 C.ar      1 <0>        -0.0807
      4 C4         -0.5595   -2.3851   -1.0727 C.ar      1 <0>        -0.2029
      5 C5         -0.1666   -2.9817    0.1189 C.ar      1 <0>         0.2679
      6 C6          0.0704   -2.1965    1.2398 C.ar      1 <0>        -0.0796
      7 C7         -0.0796   -0.8255    1.1650 C.ar      1 <0>        -0.6230
      8 S1          0.2277    0.1722    2.5844 S.o2      1 <0>         2.6883
      9 O1          0.5705   -0.7164    3.6389 O.2       1 <0>        -0.9574
     10 O2          1.0870    1.2230    2.1639 O.2       1 <0>        -0.9549
     11 N1         -1.2097    0.8771    3.0080 N.pl3     1 <0>        -1.0550
     12 C8         -2.3061    0.0795    3.3467 C.ar      1 <0>         0.1770
     13 C9         -2.1140   -1.1122    4.0337 C.ar      1 <0>        -0.1540
     14 C10        -3.1997   -1.8980    4.3675 C.ar      1 <0>        -0.0801
     15 C11        -4.4773   -1.5001    4.0183 C.ar      1 <0>        -0.1265
     16 C12        -4.6729   -0.3144    3.3343 C.ar      1 <0>        -0.0903
     17 C13        -3.5917    0.4798    3.0021 C.ar      1 <0>        -0.0576
     18 Cl1        -3.8383    1.9716    2.1493 Cl        1 <0>        -0.0681
     19 N2         -0.0108   -4.3679    0.1897 N.2       1 <0>        -1.0987
     20 S2         -0.2944   -5.3023   -1.1478 S.o2      1 <0>         2.5392
     21 O3         -1.6772   -5.1285   -1.4250 O.2       1 <0>        -1.0070
     22 O4          0.6897   -4.8963   -2.0891 O.2       1 <0>        -1.0352
     23 C14         0.0250   -7.0033   -0.6043 C.3       1 <0>        -0.5529
     24 H1          1.0571   -7.0884   -0.2645 H         1 <0>         0.1309
     25 C15        -0.9211   -7.3577    0.5446 C.3       1 <0>        -0.0898
     26 C16        -0.6518   -8.7923    1.0030 C.3       1 <0>        -0.1126
     27 C17        -0.8851   -9.7531   -0.1646 C.3       1 <0>        -0.1153
     28 C18         0.0610   -9.3987   -1.3136 C.3       1 <0>        -0.1415
     29 C19        -0.2084   -7.9640   -1.7720 C.3       1 <0>         0.1161
     30 H2          0.4657   -7.7115   -2.5905 H         1 <0>         0.0612
     31 O5         -1.5615   -7.8524   -2.2175 O.3       1 <0>        -0.5495
     32 H3          0.3201    1.7245   -0.3003 H         1 <0>         0.0765
     33 H4         -1.3425    1.5067   -0.8975 H         1 <0>         0.0672
     34 H5         -1.0340    1.6306    0.8512 H         1 <0>         0.0496
     35 H6         -1.0187   -0.5501   -2.0650 H         1 <0>         0.1111
     36 H7         -0.7449   -2.9928   -1.9461 H         1 <0>         0.1072
     37 H8          0.3755   -2.6571    2.1678 H         1 <0>         0.1337
     38 H9         -1.2907    1.8437    3.0209 H         1 <0>         0.4243
     39 H10        -1.1167   -1.4242    4.3063 H         1 <0>         0.1703
     40 H11        -3.0506   -2.8247    4.9016 H         1 <0>         0.1360
     41 H12        -5.3241   -2.1171    4.2801 H         1 <0>         0.1322
     42 H13        -5.6719   -0.0068    3.0628 H         1 <0>         0.1345
     43 H14        -0.7549   -6.6732    1.3765 H         1 <0>         0.0862
     44 H15        -1.9533   -7.2726    0.2048 H         1 <0>         0.0799
     45 H16         0.3804   -8.8774    1.3429 H         1 <0>         0.0595
     46 H17        -1.3258   -9.0448    1.8216 H         1 <0>         0.0632
     47 H18        -0.6933  -10.7752    0.1619 H         1 <0>         0.0572
     48 H19        -1.9173   -9.6680   -0.5045 H         1 <0>         0.0689
     49 H20         1.0931   -9.4838   -0.9737 H         1 <0>         0.0716
     50 H21        -0.1053  -10.0831   -2.1454 H         1 <0>         0.0642
     51 H22        -1.7811   -8.4345   -2.9578 H         1 <0>         0.3753
@<TRIPOS>BOND
     1    1    2 1
     2    1   32 1
     3    1   33 1
     4    1   34 1
     5    2    7 ar
     6    2    3 ar
     7    3    4 ar
     8    3   35 1
     9    4    5 ar
    10    4   36 1
    11    5    6 ar
    12    5   19 1
    13    6    7 ar
    14    6   37 1
    15    7    8 1
    16    8    9 2
    17    8   10 2
    18    8   11 1
    19   11   12 1
    20   11   38 1
    21   12   17 ar
    22   12   13 ar
    23   13   14 ar
    24   13   39 1
    25   14   15 ar
    26   14   40 1
    27   15   16 ar
    28   15   41 1
    29   16   17 ar
    30   16   42 1
    31   17   18 1
    32   19   20 1
    33   20   21 2
    34   20   22 2
    35   20   23 1
    36   23   24 1
    37   23   29 1
    38   23   25 1
    39   25   26 1
    40   25   43 1
    41   25   44 1
    42   26   27 1
    43   26   45 1
    44   26   46 1
    45   27   28 1
    46   27   47 1
    47   27   48 1
    48   28   29 1
    49   28   49 1
    50   28   50 1
    51   29   30 1
    52   29   31 1
    53   31   51 1
@<TRIPOS>MOLECULE
ZINC05104810
   51    52     0     0     0
SMALL
USER_CHARGES
2-[3-(4-chlorophenyl)-2-(4-methylbenzoyl)amino-prop-2-enoyl]aminopentanoic acid
@<TRIPOS>ATOM
      1 C1          4.2838   -9.1145    3.1005 C.3       1 <0>        -0.1476
      2 C2          4.3942   -7.9939    2.0646 C.3       1 <0>        -0.1190
      3 C3          5.0183   -6.7577    2.7152 C.3       1 <0>        -0.1084
      4 C4          5.1287   -5.6371    1.6793 C.3       1 <0>         0.1056
      5 H1          5.7154   -5.9848    0.8291 H         1 <0>         0.0895
      6 C5          5.8050   -4.4427    2.3015 C.2       1 <0>         0.4566
      7 O1          5.2268   -3.3834    2.3599 O.co2     1 <0>        -0.6132
      8 N1          3.7884   -5.2579    1.2255 N.am      1 <0>        -0.6780
      9 C6          3.6073   -4.7934   -0.0267 C.2       1 <0>         0.5799
     10 O2          4.5381   -4.7767   -0.8099 O.2       1 <0>        -0.5304
     11 C7          2.2850   -4.3069   -0.4461 C.2       1 <0>         0.1327
     12 C8          1.2893   -5.1873   -0.6993 C.2       1 <0>        -0.1842
     13 C9          1.5688   -6.6313   -0.7075 C.ar      1 <0>        -0.0308
     14 C10         2.8084   -7.1047   -1.1504 C.ar      1 <0>        -0.1084
     15 C11         3.0654   -8.4590   -1.1494 C.ar      1 <0>        -0.0979
     16 C12         2.0953   -9.3513   -0.7228 C.ar      1 <0>        -0.0360
     17 C13         0.8633   -8.8901   -0.2881 C.ar      1 <0>        -0.1118
     18 C14         0.5943   -7.5383   -0.2777 C.ar      1 <0>        -0.1002
     19 Cl1         2.4252  -11.0556   -0.7324 Cl        1 <0>        -0.0797
     20 N2          2.0564   -2.9344   -0.5834 N.am      1 <0>        -0.6584
     21 C15         3.0730   -2.0631   -0.4290 C.2       1 <0>         0.5265
     22 O3          4.1660   -2.4608   -0.0752 O.2       1 <0>        -0.4244
     23 C16         2.8590   -0.6240   -0.6898 C.ar      1 <0>        -0.1277
     24 C17         3.9098    0.2811   -0.5309 C.ar      1 <0>        -0.0476
     25 C18         3.7034    1.6228   -0.7764 C.ar      1 <0>        -0.1267
     26 C19         2.4583    2.0720   -1.1793 C.ar      1 <0>        -0.0651
     27 C20         1.4125    1.1802   -1.3388 C.ar      1 <0>        -0.1310
     28 C21         1.6053   -0.1642   -1.0966 C.ar      1 <0>        -0.0860
     29 C22         2.2403    3.5391   -1.4457 C.3       1 <0>        -0.1173
     30 H2          3.8391   -9.9952    2.6370 H         1 <0>         0.0482
     31 H3          5.2771   -9.3630    3.4742 H         1 <0>         0.0522
     32 H4          3.6564   -8.7837    3.9282 H         1 <0>         0.0493
     33 H5          3.4008   -7.7454    1.6909 H         1 <0>         0.0573
     34 H6          5.0215   -8.3247    1.2369 H         1 <0>         0.0576
     35 H7          6.0116   -7.0062    3.0889 H         1 <0>         0.0838
     36 H8          4.3910   -6.4269    3.5429 H         1 <0>         0.0567
     37 H9          3.0313   -5.3411    1.8261 H         1 <0>         0.3898
     38 H10         0.2892   -4.8297   -0.8954 H         1 <0>         0.1347
     39 H11         3.5638   -6.4106   -1.4878 H         1 <0>         0.1504
     40 H12         4.0237   -8.8257   -1.4865 H         1 <0>         0.1313
     41 H13         0.1118   -9.5915    0.0430 H         1 <0>         0.1301
     42 H14        -0.3667   -7.1802    0.0610 H         1 <0>         0.1315
     43 H15         1.1661   -2.6093   -0.7897 H         1 <0>         0.4083
     44 H16         4.8822   -0.0684   -0.2167 H         1 <0>         0.1421
     45 H17         4.5143    2.3247   -0.6495 H         1 <0>         0.1301
     46 H18         0.4430    1.5374   -1.6533 H         1 <0>         0.1270
     47 H19         0.7883   -0.8593   -1.2218 H         1 <0>         0.1237
     48 H20         2.4556    3.7543   -2.4924 H         1 <0>         0.0729
     49 H21         1.2042    3.7980   -1.2273 H         1 <0>         0.0675
     50 H22         2.9032    4.1263   -0.8102 H         1 <0>         0.0689
     51 O4          7.0498   -4.5557    2.7910 O.co2     1 <0>        -0.7743
@<TRIPOS>BOND
     1    1    2 1
     2    1   30 1
     3    1   31 1
     4    1   32 1
     5    2    3 1
     6    2   33 1
     7    2   34 1
     8    3    4 1
     9    3   35 1
    10    3   36 1
    11    4    5 1
    12    4    6 1
    13    4    8 1
    14    6    7 2
    15    6   51 1
    16    8    9 am
    17    8   37 1
    18    9   10 2
    19    9   11 1
    20   11   12 2
    21   11   20 1
    22   12   13 1
    23   12   38 1
    24   13   18 ar
    25   13   14 ar
    26   14   15 ar
    27   14   39 1
    28   15   16 ar
    29   15   40 1
    30   16   17 ar
    31   16   19 1
    32   17   18 ar
    33   17   41 1
    34   18   42 1
    35   20   21 am
    36   20   43 1
    37   21   22 2
    38   21   23 1
    39   23   28 ar
    40   23   24 ar
    41   24   25 ar
    42   24   44 1
    43   25   26 ar
    44   25   45 1
    45   26   27 ar
    46   26   29 1
    47   27   28 ar
    48   27   46 1
    49   28   47 1
    50   29   48 1
    51   29   49 1
    52   29   50 1
@<TRIPOS>MOLECULE
ZINC13278701
   42    44     0     0     0
SMALL
USER_CHARGES
5-[[4-(4-acetamido-2-fluoro-phenyl)thiazol-2-yl]sulfamoyl]-2-chloro-benzoic acid
@<TRIPOS>ATOM
      1 C1          1.3357   -0.9693   -0.7410 C.3       1 <0>        -0.1690
      2 C2          0.0268   -0.2353   -0.6028 C.2       1 <0>         0.5101
      3 O1         -0.9926   -0.7255   -1.0407 O.2       1 <0>        -0.5190
      4 N1         -0.0111    0.9658    0.0074 N.am      1 <0>        -0.6737
      5 C3         -1.2082    1.6884    0.0559 C.ar      1 <0>         0.1732
      6 C4         -2.4187    1.0173    0.1828 C.ar      1 <0>        -0.1307
      7 C5         -3.6005    1.7260    0.2310 C.ar      1 <0>        -0.0386
      8 C6         -3.5817    3.1176    0.1522 C.ar      1 <0>        -0.0624
      9 C7         -2.3651    3.7904    0.0247 C.ar      1 <0>         0.1321
     10 C8         -1.1842    3.0753   -0.0173 C.ar      1 <0>        -0.1793
     11 F1         -2.3425    5.1390   -0.0515 F         1 <0>        -0.1263
     12 C9         -4.8516    3.8820    0.2043 C.2       1 <0>         0.1129
     13 C10        -4.8399    5.2456    0.1276 C.2       1 <0>        -0.2167
     14 S1         -6.5885    5.6013    0.2381 S.3       1 <0>         0.0539
     15 C11        -7.1544    3.9115    0.3742 C.2       1 <0>         0.3527
     16 N2         -6.0151    3.2460    0.3207 N.2       1 <0>        -0.5236
     17 N3         -8.4468    3.4277    0.4974 N.pl3     1 <0>        -0.9899
     18 S2         -9.7249    4.4800    0.5347 S.o2      1 <0>         2.6810
     19 O2        -10.9001    3.6881    0.6390 O.2       1 <0>        -0.9197
     20 O3         -9.3963    5.4844    1.4847 O.2       1 <0>        -0.9302
     21 C12        -9.7911    5.2751   -1.0363 C.ar      1 <0>        -0.7024
     22 C13        -9.0971    6.4551   -1.2425 C.ar      1 <0>        -0.0107
     23 C14        -9.1391    7.0838   -2.4733 C.ar      1 <0>        -0.1458
     24 C15        -9.8837    6.5428   -3.5034 C.ar      1 <0>         0.0522
     25 C16       -10.5908    5.3546   -3.3000 C.ar      1 <0>        -0.1270
     26 C17       -10.5386    4.7233   -2.0551 C.ar      1 <0>         0.0416
     27 C18       -11.3887    4.7693   -4.3957 C.2       1 <0>         0.4860
     28 O4        -11.4321    5.3208   -5.4772 O.co2     1 <0>        -0.6000
     29 Cl1        -9.9406    7.3362   -5.0465 Cl        1 <0>        -0.0250
     30 H1          2.1332   -0.3777   -0.2915 H         1 <0>         0.0789
     31 H2          1.2677   -1.9320   -0.2343 H         1 <0>         0.1001
     32 H3          1.5529   -1.1291   -1.7971 H         1 <0>         0.1007
     33 H4          0.7907    1.3275    0.4164 H         1 <0>         0.4136
     34 H5         -2.4336   -0.0608    0.2435 H         1 <0>         0.1481
     35 H6         -4.5404    1.2030    0.3293 H         1 <0>         0.1491
     36 H7         -0.2418    3.5946   -0.1111 H         1 <0>         0.1427
     37 H8         -4.0043    5.9225    0.0274 H         1 <0>         0.2184
     38 H9         -8.6030    2.4725    0.5617 H         1 <0>         0.4426
     39 H10        -8.5170    6.8847   -0.4392 H         1 <0>         0.1432
     40 H11        -8.5919    8.0019   -2.6284 H         1 <0>         0.1421
     41 H12       -11.0828    3.8050   -1.8907 H         1 <0>         0.1592
     42 O5        -12.0687    3.6236   -4.1961 O.co2     1 <0>        -0.7444
@<TRIPOS>BOND
     1    1    2 1
     2    1   30 1
     3    1   31 1
     4    1   32 1
     5    2    3 2
     6    2    4 am
     7    4    5 1
     8    4   33 1
     9    5   10 ar
    10    5    6 ar
    11    6    7 ar
    12    6   34 1
    13    7    8 ar
    14    7   35 1
    15    8    9 ar
    16    8   12 1
    17    9   10 ar
    18    9   11 1
    19   10   36 1
    20   12   16 1
    21   12   13 2
    22   13   14 1
    23   13   37 1
    24   14   15 1
    25   15   16 2
    26   15   17 1
    27   17   18 1
    28   17   38 1
    29   18   19 2
    30   18   20 2
    31   18   21 1
    32   21   26 ar
    33   21   22 ar
    34   22   23 ar
    35   22   39 1
    36   23   24 ar
    37   23   40 1
    38   24   25 ar
    39   24   29 1
    40   25   26 ar
    41   25   27 1
    42   26   41 1
    43   27   28 2
    44   27   42 1
@<TRIPOS>MOLECULE
ZINC20496850
   54    56     0     0     0
SMALL
USER_CHARGES
N-[[4-[(4,6-dimethylpyrimidin-2-yl)sulfamoyl]phenyl]carbamothioyl]-3,4-dimethyl-benzamide
@<TRIPOS>ATOM
      1 C1         -0.7002   11.8855    1.6837 C.3       1 <0>        -0.1208
      2 C2         -0.5885   10.3837    1.7383 C.ar      1 <0>        -0.0600
      3 C3          0.0977    9.7074    0.7448 C.ar      1 <0>        -0.1218
      4 C4          0.2087    8.3334    0.7917 C.ar      1 <0>        -0.0920
      5 C5         -0.3834    7.6237    1.8383 C.ar      1 <0>        -0.1332
      6 C6         -1.0745    8.3121    2.8370 C.ar      1 <0>        -0.0516
      7 C7         -1.1726    9.6871    2.7811 C.ar      1 <0>        -0.0915
      8 C8         -1.9183   10.4320    3.8583 C.3       1 <0>        -0.1175
      9 C9         -0.2738    6.1511    1.8919 C.2       1 <0>         0.5355
     10 O1         -0.7859    5.5365    2.8067 O.2       1 <0>        -0.4052
     11 N1          0.3941    5.4895    0.9261 N.am      1 <0>        -0.6545
     12 C10         0.4941    4.1463    0.9750 C.2       1 <0>         0.5175
     13 S1         -0.2274    3.2805    2.2637 S.2       1 <0>        -0.4970
     14 N2          1.1620    3.4847    0.0092 N.pl3     1 <0>        -0.6293
     15 C11         1.1681    2.0861   -0.0044 C.ar      1 <0>         0.1528
     16 C12         0.0022    1.3823    0.2681 C.ar      1 <0>        -0.1073
     17 C13         0.0115    0.0014    0.2534 C.ar      1 <0>        -0.0203
     18 C14         1.1800   -0.6807   -0.0323 C.ar      1 <0>        -0.6418
     19 C15         2.3426    0.0170   -0.3040 C.ar      1 <0>         0.0174
     20 C16         2.3402    1.3980   -0.2905 C.ar      1 <0>        -0.1566
     21 S2          1.1877   -2.4426   -0.0495 S.o2      1 <0>         2.6238
     22 O2          2.5289   -2.8452    0.1924 O.2       1 <0>        -1.0210
     23 O3          0.1066   -2.8615    0.7721 O.2       1 <0>        -0.9928
     24 N3          0.8216   -2.9188   -1.5927 N.2       1 <0>        -1.0101
     25 C17         1.6881   -2.6256   -2.6313 C.ar      1 <0>         0.5917
     26 N4          2.6357   -1.7182   -2.4464 N.ar      1 <0>        -0.6125
     27 C18         3.4835   -1.4186   -3.4166 C.ar      1 <0>         0.2083
     28 C19         3.3641   -2.0584   -4.6403 C.ar      1 <0>        -0.3331
     29 C20         2.3582   -2.9982   -4.8014 C.ar      1 <0>         0.2011
     30 N5          1.5470   -3.2550   -3.7886 N.ar      1 <0>        -0.5508
     31 C21         2.1910   -3.7190   -6.1142 C.3       1 <0>        -0.1013
     32 C22         4.5626   -0.3901   -3.1958 C.3       1 <0>        -0.1024
     33 H1         -0.1784   12.2597    0.7906 H         1 <0>         0.0677
     34 H2         -0.2428   12.3202    2.5847 H         1 <0>         0.0747
     35 H3         -1.7610   12.1728    1.6359 H         1 <0>         0.0748
     36 H4          0.5511   10.2572   -0.0667 H         1 <0>         0.1301
     37 H5          0.7486    7.8073    0.0183 H         1 <0>         0.1223
     38 H6         -1.5310    7.7695    3.6516 H         1 <0>         0.1399
     39 H7         -2.3096    9.7157    4.5957 H         1 <0>         0.0702
     40 H8         -2.7538   10.9882    3.4082 H         1 <0>         0.0729
     41 H9         -1.2357   11.1358    4.3571 H         1 <0>         0.0727
     42 H10         0.8576    6.0458    0.0980 H         1 <0>         0.4277
     43 H11         1.7023    4.0447   -0.7683 H         1 <0>         0.4258
     44 H12        -0.9118    1.9145    0.4869 H         1 <0>         0.1359
     45 H13        -0.8948   -0.5465    0.4655 H         1 <0>         0.1363
     46 H14         3.2536   -0.5186   -0.5267 H         1 <0>         0.1482
     47 H15         3.2486    1.9423   -0.5021 H         1 <0>         0.1213
     48 H16         4.0401   -1.8293   -5.4509 H         1 <0>         0.1203
     49 H17         1.3451   -4.4186   -6.0432 H         1 <0>         0.0750
     50 H18         3.1101   -4.2772   -6.3456 H         1 <0>         0.0727
     51 H19         1.9957   -2.9873   -6.9120 H         1 <0>         0.0719
     52 H20         5.1601   -0.2828   -4.1131 H         1 <0>         0.0676
     53 H21         5.2135   -0.7131   -2.3699 H         1 <0>         0.0766
     54 H22         4.1019    0.5763   -2.9432 H         1 <0>         0.0716
@<TRIPOS>BOND
     1    1    2 1
     2    1   33 1
     3    1   34 1
     4    1   35 1
     5    2    7 ar
     6    2    3 ar
     7    3    4 ar
     8    3   36 1
     9    4    5 ar
    10    4   37 1
    11    5    6 ar
    12    5    9 1
    13    6    7 ar
    14    6   38 1
    15    7    8 1
    16    8   39 1
    17    8   40 1
    18    8   41 1
    19    9   10 2
    20    9   11 am
    21   11   12 1
    22   11   42 1
    23   12   13 2
    24   12   14 1
    25   14   15 1
    26   14   43 1
    27   15   20 ar
    28   15   16 ar
    29   16   17 ar
    30   16   44 1
    31   17   18 ar
    32   17   45 1
    33   18   19 ar
    34   18   21 1
    35   19   20 ar
    36   19   46 1
    37   20   47 1
    38   21   22 2
    39   21   23 2
    40   21   24 1
    41   24   25 1
    42   25   30 ar
    43   25   26 ar
    44   26   27 ar
    45   27   28 ar
    46   27   32 1
    47   28   29 ar
    48   28   48 1
    49   29   30 ar
    50   29   31 1
    51   31   49 1
    52   31   50 1
    53   31   51 1
    54   32   52 1
    55   32   53 1
    56   32   54 1
@<TRIPOS>MOLECULE
ZINC17098109
   61    64     0     0     0
SMALL
USER_CHARGES

@<TRIPOS>ATOM
      1 C1         -0.0187    1.5258    0.0104 C.3       1 <0>        -0.1422
      2 C2          0.0021   -0.0041    0.0020 C.3       1 <0>        -0.0671
      3 C3         -1.4117   -0.5257    0.0127 C.2       1 <0>        -0.0574
      4 C4         -2.0734   -0.7739    1.1581 C.2       1 <0>        -0.2394
      5 S1         -3.6584   -1.3567    0.5976 S.3       1 <0>         0.2696
      6 C5         -3.4356   -1.2686   -1.0630 C.2       1 <0>         0.0635
      7 C6         -2.1434   -0.7847   -1.2062 C.2       1 <0>        -0.2531
      8 C7         -1.5486   -0.5535   -2.5262 C.2       1 <0>         0.5872
      9 O1         -0.9369   -1.4465   -3.0830 O.2       1 <0>        -0.5330
     10 N1         -1.6792    0.6477   -3.1232 N.am      1 <0>        -0.7160
     11 C8         -1.0850    0.8787   -4.4422 C.3       1 <0>         0.1379
     12 C9          0.3736    1.3570   -4.2882 C.3       1 <0>        -0.1320
     13 C10         0.5526    2.4002   -5.4190 C.3       1 <0>        -0.1236
     14 C11        -0.8162    3.1248   -5.4354 C.3       1 <0>        -0.1219
     15 C12        -1.8415    2.0027   -5.1716 C.3       1 <0>        -0.1337
     16 N2         -4.3381   -1.5980   -2.0628 N.am      1 <0>        -0.6201
     17 C13        -5.5656   -2.0515   -1.7400 C.2       1 <0>         0.5234
     18 O2         -5.8807   -2.1715   -0.5750 O.2       1 <0>        -0.5084
     19 C14        -6.5464   -2.4096   -2.8266 C.3       1 <0>        -0.0919
     20 H1         -6.1278   -3.2018   -3.4474 H         1 <0>         0.1304
     21 C15        -6.8230   -1.1773   -3.6903 C.3       1 <0>        -0.1400
     22 H2         -6.2450   -0.3331   -3.3145 H         1 <0>         0.0595
     23 C16        -8.3143   -0.8396   -3.6343 C.3       1 <0>        -0.0629
     24 C17        -9.1257   -2.0246   -4.1617 C.3       1 <0>        -0.1096
     25 C18        -8.8491   -3.2569   -3.2981 C.3       1 <0>        -0.1073
     26 C19        -7.8532   -2.8934   -2.1949 C.3       1 <0>        -0.0597
     27 C20        -8.4408   -1.7814   -1.3236 C.3       1 <0>        -0.1224
     28 C21        -8.7174   -0.5491   -2.1873 C.3       1 <0>        -0.1135
     29 C22        -6.4259   -1.4634   -5.1156 C.2       1 <0>         0.4996
     30 O3         -5.9645   -2.5520   -5.4131 O.co2     1 <0>        -0.6877
     31 O4         -6.5661   -0.6063   -5.9713 O.co2     1 <0>        -0.6914
     32 C23        -1.5884   -0.6005    2.5744 C.3       1 <0>        -0.0573
     33 H3          1.0039    1.9031    0.0027 H         1 <0>         0.0552
     34 H4         -0.5459    1.8868   -0.8726 H         1 <0>         0.0539
     35 H5         -0.5289    1.8773    0.9072 H         1 <0>         0.0562
     36 H6          0.5123   -0.3556   -0.8948 H         1 <0>         0.0684
     37 H7          0.5293   -0.3651    0.8851 H         1 <0>         0.0740
     38 H8         -2.1667    1.3593   -2.6795 H         1 <0>         0.3987
     39 H9         -1.1180   -0.0374   -5.0319 H         1 <0>         0.0927
     40 H10         0.5217    1.8218   -3.3134 H         1 <0>         0.0688
     41 H11         1.0643    0.5248   -4.4240 H         1 <0>         0.0688
     42 H12         1.3556    3.0969   -5.1783 H         1 <0>         0.0658
     43 H13         0.7403    1.9075   -6.3730 H         1 <0>         0.0690
     44 H14        -0.8602    3.8751   -4.6460 H         1 <0>         0.0644
     45 H15        -0.9938    3.5827   -6.4085 H         1 <0>         0.0675
     46 H16        -2.2409    1.6323   -6.1157 H         1 <0>         0.0796
     47 H17        -2.6508    2.3763   -4.5443 H         1 <0>         0.0715
     48 H18        -4.0861   -1.5021   -2.9946 H         1 <0>         0.4259
     49 H19        -8.5113    0.0383   -4.2496 H         1 <0>         0.0736
     50 H20       -10.1881   -1.7840   -4.1219 H         1 <0>         0.0525
     51 H21        -8.8385   -2.2316   -5.1927 H         1 <0>         0.0679
     52 H22        -9.7801   -3.6015   -2.8480 H         1 <0>         0.0572
     53 H23        -8.4305   -4.0491   -3.9188 H         1 <0>         0.0641
     54 H24        -7.6562   -3.7713   -1.5796 H         1 <0>         0.0695
     55 H25        -9.3718   -2.1260   -0.8735 H         1 <0>         0.0538
     56 H26        -7.7314   -1.5224   -0.5377 H         1 <0>         0.0829
     57 H27        -8.1393    0.2951   -1.8115 H         1 <0>         0.0516
     58 H28        -9.7798   -0.3085   -2.1474 H         1 <0>         0.0555
     59 H29        -1.8269    0.4055    2.9195 H         1 <0>         0.0705
     60 H30        -2.0782   -1.3311    3.2182 H         1 <0>         0.0680
     61 H31        -0.5094   -0.7505    2.6099 H         1 <0>         0.0730
@<TRIPOS>BOND
     1    1    2 1
     2    1   33 1
     3    1   34 1
     4    1   35 1
     5    2    3 1
     6    2   36 1
     7    2   37 1
     8    3    7 1
     9    3    4 2
    10    4    5 1
    11    4   32 1
    12    5    6 1
    13    6    7 2
    14    6   16 1
    15    7    8 1
    16    8    9 2
    17    8   10 am
    18   10   11 1
    19   10   38 1
    20   11   15 1
    21   11   12 1
    22   11   39 1
    23   12   13 1
    24   12   40 1
    25   12   41 1
    26   13   14 1
    27   13   42 1
    28   13   43 1
    29   14   15 1
    30   14   44 1
    31   14   45 1
    32   15   46 1
    33   15   47 1
    34   16   17 am
    35   16   48 1
    36   17   18 2
    37   17   19 1
    38   19   20 1
    39   19   26 1
    40   19   21 1
    41   21   22 1
    42   21   23 1
    43   21   29 1
    44   23   28 1
    45   23   24 1
    46   23   49 1
    47   24   25 1
    48   24   50 1
    49   24   51 1
    50   25   26 1
    51   25   52 1
    52   25   53 1
    53   26   27 1
    54   26   54 1
    55   27   28 1
    56   27   55 1
    57   27   56 1
    58   28   57 1
    59   28   58 1
    60   29   30 2
    61   29   31 1
    62   32   59 1
    63   32   60 1
    64   32   61 1
@<TRIPOS>MOLECULE
ZINC60093068
   65    66     0     0     0
SMALL
USER_CHARGES

@<TRIPOS>ATOM
      1 C1         -0.7232    1.5274    0.0870 C.3       1 <0>        -0.0869
      2 C2         -0.5711    0.0285    0.0548 C.ar      1 <0>        -0.2144
      3 C3         -0.5860   -0.6399   -1.1594 C.ar      1 <0>        -0.0421
      4 C4         -0.4483   -2.0119   -1.2033 C.ar      1 <0>        -0.2572
      5 C5         -0.2934   -2.7340   -0.0263 C.ar      1 <0>         0.3309
      6 C6         -0.2774   -2.0601    1.2047 C.ar      1 <0>        -0.2208
      7 C7         -0.4125   -0.6695    1.2317 C.ar      1 <0>        -0.0381
      8 C8         -0.1138   -2.8140    2.4610 C.2       1 <0>         0.5647
      9 O1          0.0079   -4.0236    2.4328 O.2       1 <0>        -0.5015
     10 N1         -0.0991   -2.1626    3.6408 N.am      1 <0>        -0.7454
     11 C9          0.0635   -2.9117    4.8892 C.3       1 <0>         0.1106
     12 C10         0.1820   -1.9332    6.0595 C.3       1 <0>         0.1984
     13 C11         1.3837   -0.9992    5.8099 C.3       1 <0>        -0.1224
     14 C12         1.2065    0.2408    6.6437 C.3       1 <0>        -0.1292
     15 C13         1.9280    0.1461    8.0016 C.3       1 <0>        -0.1136
     16 C14         1.7709   -1.2348    8.6666 C.3       1 <0>        -0.1204
     17 C15         0.3741   -1.7798    8.5389 C.3       1 <0>        -0.1092
     18 C16         0.3150   -2.6904    7.2953 C.3       1 <0>        -0.1459
     19 N2         -1.0383   -1.1254    6.1270 N.am      1 <0>        -0.7038
     20 C17        -2.2185   -1.7100    6.4131 C.2       1 <0>         0.6541
     21 O2         -2.2864   -2.9179    6.5270 O.2       1 <0>        -0.5559
     22 O3         -3.3223   -0.9557    6.5725 O.3       1 <0>        -0.3620
     23 C18        -4.5389   -1.6418    6.8743 C.3       1 <0>         0.1371
     24 C19        -4.3768   -2.4154    8.1844 C.3       1 <0>        -0.1836
     25 C20        -5.6746   -0.6268    7.0186 C.3       1 <0>        -0.1397
     26 C21        -4.8680   -2.6180    5.7431 C.3       1 <0>        -0.1870
     27 N3         -0.1555   -4.1153   -0.0677 N.2       1 <0>        -1.0366
     28 S1         -0.1754   -4.9061   -1.5226 S.o2      1 <0>         2.5137
     29 O4         -1.4785   -4.6780   -2.0414 O.2       1 <0>        -1.0313
     30 O5          0.9723   -4.4282   -2.2108 O.2       1 <0>        -1.0314
     31 C22         0.0321   -6.6587   -1.1033 C.3       1 <0>        -0.6313
     32 H1          0.2597    1.9939    0.0197 H         1 <0>         0.0491
     33 H2         -1.3362    1.8487   -0.7550 H         1 <0>         0.0503
     34 H3         -1.2029    1.8240    1.0198 H         1 <0>         0.0496
     35 H4         -0.7065   -0.0832   -2.0770 H         1 <0>         0.1029
     36 H5         -0.4613   -2.5253   -2.1534 H         1 <0>         0.1062
     37 H6         -0.3973   -0.1431    2.1746 H         1 <0>         0.1009
     38 H7         -0.1962   -1.1977    3.6633 H         1 <0>         0.3861
     39 H8         -0.8018   -3.5568    5.0412 H         1 <0>         0.0822
     40 H9          0.9655   -3.5211    4.8324 H         1 <0>         0.0704
     41 H10         2.3060   -1.5045    6.0966 H         1 <0>         0.0863
     42 H11         1.4240   -0.7284    4.7548 H         1 <0>         0.0805
     43 H12         1.6010    1.0951    6.0935 H         1 <0>         0.0654
     44 H13         0.1424    0.3982    6.8199 H         1 <0>         0.0680
     45 H14         2.9891    0.3448    7.8505 H         1 <0>         0.0584
     46 H15         1.5219    0.9060    8.6692 H         1 <0>         0.0565
     47 H16         2.4657   -1.9325    8.1991 H         1 <0>         0.0620
     48 H17         2.0200   -1.1473    9.7241 H         1 <0>         0.0551
     49 H18         0.1241   -2.3582    9.4283 H         1 <0>         0.0598
     50 H19        -0.3310   -0.9567    8.4238 H         1 <0>         0.0651
     51 H20        -0.5372   -3.3632    7.3906 H         1 <0>         0.0984
     52 H21         1.2278   -3.2843    7.2489 H         1 <0>         0.0745
     53 H22        -0.9969   -0.1698    5.9660 H         1 <0>         0.4039
     54 H23        -4.1423   -1.7199    8.9903 H         1 <0>         0.0557
     55 H24        -5.3048   -2.9387    8.4145 H         1 <0>         0.0663
     56 H25        -3.5677   -3.1385    8.0816 H         1 <0>         0.0895
     57 H26        -5.7901   -0.0757    6.0852 H         1 <0>         0.0665
     58 H27        -6.6026   -1.1501    7.2487 H         1 <0>         0.0776
     59 H28        -5.4401    0.0686    7.8245 H         1 <0>         0.0636
     60 H29        -4.0589   -3.3411    5.6403 H         1 <0>         0.0908
     61 H30        -5.7960   -3.1414    5.9732 H         1 <0>         0.0662
     62 H31        -4.9835   -2.0669    4.8097 H         1 <0>         0.0604
     63 H32        -0.7875   -6.9779   -0.4596 H         1 <0>         0.1163
     64 H33         0.0296   -7.2536   -2.0167 H         1 <0>         0.0994
     65 H34         0.9791   -6.7979   -0.5817 H         1 <0>         0.1163
@<TRIPOS>BOND
     1    1    2 1
     2    1   32 1
     3    1   33 1
     4    1   34 1
     5    2    7 ar
     6    2    3 ar
     7    3    4 ar
     8    3   35 1
     9    4    5 ar
    10    4   36 1
    11    5    6 ar
    12    5   27 1
    13    6    7 ar
    14    6    8 1
    15    7   37 1
    16    8    9 2
    17    8   10 am
    18   10   11 1
    19   10   38 1
    20   11   12 1
    21   11   39 1
    22   11   40 1
    23   12   18 1
    24   12   13 1
    25   12   19 1
    26   13   14 1
    27   13   41 1
    28   13   42 1
    29   14   15 1
    30   14   43 1
    31   14   44 1
    32   15   16 1
    33   15   45 1
    34   15   46 1
    35   16   17 1
    36   16   47 1
    37   16   48 1
    38   17   18 1
    39   17   49 1
    40   17   50 1
    41   18   51 1
    42   18   52 1
    43   19   20 am
    44   19   53 1
    45   20   21 2
    46   20   22 1
    47   22   23 1
    48   23   24 1
    49   23   25 1
    50   23   26 1
    51   24   54 1
    52   24   55 1
    53   24   56 1
    54   25   57 1
    55   25   58 1
    56   25   59 1
    57   26   60 1
    58   26   61 1
    59   26   62 1
    60   27   28 1
    61   28   29 2
    62   28   30 2
    63   28   31 1
    64   31   63 1
    65   31   64 1
    66   31   65 1
@<TRIPOS>MOLECULE
ZINC67245515
   48    50     0     0     0
SMALL
USER_CHARGES

@<TRIPOS>ATOM
      1 C1         -0.0178    1.4608    0.0101 C.3       1 <0>         0.0960
      2 N1          0.0021   -0.0041    0.0020 N.pl3     1 <0>        -0.6399
      3 C2          1.2806   -0.7192   -0.0140 C.3       1 <0>         0.0926
      4 C3         -1.1979   -0.7188    0.0096 C.ar      1 <0>         0.2165
      5 C4         -1.1808   -2.1078    0.0078 C.ar      1 <0>        -0.1995
      6 C5         -2.3691   -2.8115    0.0159 C.ar      1 <0>        -0.0513
      7 C6         -3.5751   -2.1348    0.0252 C.ar      1 <0>        -0.1609
      8 C7         -3.5957   -0.7521    0.0271 C.ar      1 <0>        -0.0519
      9 C8         -2.4110   -0.0423    0.0249 C.ar      1 <0>        -0.1974
     10 C9         -4.8698   -2.9060    0.0330 C.3       1 <0>         0.1688
     11 N2         -5.2798   -3.1581    1.4167 N.am      1 <0>        -0.7292
     12 C10        -6.4165   -3.8365    1.6697 C.2       1 <0>         0.5697
     13 O1         -7.1018   -4.2395    0.7495 O.2       1 <0>        -0.4874
     14 C11        -6.8291   -4.0902    3.0622 C.2       1 <0>        -0.2257
     15 C12        -6.1592   -3.6906    4.2011 C.2       1 <0>         0.0880
     16 N3         -6.8682   -4.1217    5.2566 N.pl3     1 <0>        -0.4599
     17 N4         -7.9975   -4.8005    4.7852 N.2       1 <0>        -0.1791
     18 H1         -6.6366   -3.9858    6.1886 H         1 <0>         0.4427
     19 C13        -7.9874   -4.7825    3.4809 C.2       1 <0>        -0.3634
     20 S1         -9.2029   -5.4999    2.4261 S.o2      1 <0>         2.6289
     21 O2        -10.2503   -4.5471    2.3066 O.2       1 <0>        -1.0174
     22 O3         -8.5088   -6.0145    1.2979 O.2       1 <0>        -0.9766
     23 N5         -9.8377   -6.8034    3.2262 N.2       1 <0>        -1.0855
     24 C14       -10.8359   -7.5743    2.6245 C.ar      1 <0>         0.2874
     25 C15       -11.2924   -7.2519    1.3529 C.ar      1 <0>        -0.2565
     26 C16       -12.2786   -8.0159    0.7604 C.ar      1 <0>        -0.0513
     27 C17       -12.8123   -9.1014    1.4325 C.ar      1 <0>        -0.1378
     28 C18       -12.3593   -9.4249    2.6995 C.ar      1 <0>        -0.0670
     29 C19       -11.3692   -8.6679    3.2945 C.ar      1 <0>        -0.1738
     30 Cl1       -14.0526  -10.0588    0.6852 Cl        1 <0>        -0.1192
     31 H2          1.0048    1.8381    0.0023 H         1 <0>         0.0716
     32 H3         -0.5450    1.8219   -0.8730 H         1 <0>         0.0539
     33 H4         -0.5280    1.8123    0.9069 H         1 <0>         0.0538
     34 H5          1.6074   -0.9021    1.0096 H         1 <0>         0.0474
     35 H6          1.1583   -1.6705   -0.5318 H         1 <0>         0.0693
     36 H7          2.0272   -0.1171   -0.5318 H         1 <0>         0.0653
     37 H8         -0.2393   -2.6369   -0.0002 H         1 <0>         0.1223
     38 H9         -2.3566   -3.8914    0.0144 H         1 <0>         0.1247
     39 H10        -4.5393   -0.2268    0.0344 H         1 <0>         0.1241
     40 H11        -2.4278    1.0375    0.0308 H         1 <0>         0.1207
     41 H12        -5.6409   -2.3265   -0.4746 H         1 <0>         0.0742
     42 H13        -4.7301   -3.8558   -0.4833 H         1 <0>         0.0758
     43 H14        -4.7332   -2.8366    2.1507 H         1 <0>         0.3936
     44 H15        -5.2343   -3.1340    4.2366 H         1 <0>         0.1888
     45 H16       -10.8768   -6.4044    0.8282 H         1 <0>         0.1064
     46 H17       -12.6340   -7.7656   -0.2283 H         1 <0>         0.1126
     47 H18       -12.7775  -10.2727    3.2218 H         1 <0>         0.1146
     48 H19       -11.0130   -8.9235    4.2815 H         1 <0>         0.1210
@<TRIPOS>BOND
     1    1    2 1
     2    1   31 1
     3    1   32 1
     4    1   33 1
     5    2    3 1
     6    2    4 1
     7    3   34 1
     8    3   35 1
     9    3   36 1
    10    4    9 ar
    11    4    5 ar
    12    5    6 ar
    13    5   37 1
    14    6    7 ar
    15    6   38 1
    16    7    8 ar
    17    7   10 1
    18    8    9 ar
    19    8   39 1
    20    9   40 1
    21   10   11 1
    22   10   41 1
    23   10   42 1
    24   11   12 am
    25   11   43 1
    26   12   13 2
    27   12   14 1
    28   14   19 1
    29   14   15 2
    30   15   44 1
    31   15   16 1
    32   16   17 1
    33   16   18 1
    34   17   19 2
    35   19   20 1
    36   20   21 2
    37   20   22 2
    38   20   23 1
    39   23   24 1
    40   24   29 ar
    41   24   25 ar
    42   25   26 ar
    43   25   45 1
    44   26   27 ar
    45   26   46 1
    46   27   28 ar
    47   27   30 1
    48   28   29 ar
    49   28   47 1
    50   29   48 1
@<TRIPOS>MOLECULE
ZINC13252277
   49    51     0     0     0
SMALL
USER_CHARGES
(1R,6S)-6-[[3-[[3-(trifluoromethyl)phenyl]carbamoyl]phenyl]carbamoyl]cyclohex-3-ene-1-carboxylic acid
@<TRIPOS>ATOM
      1 C1         -0.1759    9.2546   -0.4342 C.ar      1 <0>        -0.1059
      2 C2         -0.1612    7.9712    0.0734 C.ar      1 <0>        -0.1140
      3 C3         -1.3501    7.3743    0.4961 C.ar      1 <0>        -0.1257
      4 C4         -2.5512    8.0773    0.3985 C.ar      1 <0>        -0.0895
      5 C5         -2.5545    9.3671   -0.1086 C.ar      1 <0>         0.1685
      6 C6         -1.3652    9.9527   -0.5264 C.ar      1 <0>        -0.0904
      7 N1         -3.7561   10.0782   -0.2046 N.am      1 <0>        -0.6523
      8 C7         -3.7631   11.4154   -0.0367 C.2       1 <0>         0.5399
      9 O1         -2.7436   11.9925    0.2775 O.2       1 <0>        -0.5296
     10 C8         -5.0375   12.1937   -0.2395 C.3       1 <0>        -0.0880
     11 H1         -5.8944   11.5301   -0.1233 H         1 <0>         0.0920
     12 C9         -5.1191   13.3241    0.7887 C.3       1 <0>        -0.0697
     13 C10        -4.0997   14.3805    0.4774 C.2       1 <0>        -0.1569
     14 C11        -3.5042   14.4992   -0.6657 C.2       1 <0>        -0.1294
     15 C12        -3.7429   13.5913   -1.8365 C.3       1 <0>        -0.0698
     16 C13        -5.0459   12.8128   -1.6429 C.3       1 <0>        -0.1173
     17 H2         -5.8946   13.4899   -1.7397 H         1 <0>         0.0845
     18 C14        -5.1426   11.7214   -2.6776 C.2       1 <0>         0.4666
     19 O2         -5.1992   10.5649   -2.3322 O.co2     1 <0>        -0.6376
     20 C15        -1.3374    5.9996    1.0397 C.2       1 <0>         0.5666
     21 O3         -2.3740    5.4818    1.4072 O.2       1 <0>        -0.5117
     22 N2         -0.1766    5.3205    1.1278 N.am      1 <0>        -0.6724
     23 C16        -0.1778    3.9843    1.5404 C.ar      1 <0>         0.1552
     24 C17         0.8876    3.4823    2.2771 C.ar      1 <0>        -0.1165
     25 C18         0.8808    2.1638    2.6874 C.ar      1 <0>        -0.0992
     26 C19        -0.1798    1.3403    2.3561 C.ar      1 <0>        -0.0931
     27 C20        -1.2418    1.8368    1.6230 C.ar      1 <0>        -0.1621
     28 C21        -1.2439    3.1563    1.2143 C.ar      1 <0>        -0.0740
     29 C22        -2.3980    0.9374    1.2691 C.3       1 <0>         0.5092
     30 F1         -2.1698   -0.3415    1.7883 F         1 <0>        -0.1782
     31 F2         -3.5772    1.4579    1.8130 F         1 <0>        -0.1719
     32 F3         -2.5203    0.8608   -0.1224 F         1 <0>        -0.1753
     33 H3          0.7450    9.7148   -0.7607 H         1 <0>         0.1308
     34 H4          0.7701    7.4287    0.1432 H         1 <0>         0.1214
     35 H5         -3.4748    7.6191    0.7201 H         1 <0>         0.1390
     36 H6         -1.3705   10.9565   -0.9248 H         1 <0>         0.1416
     37 H7         -4.5840    9.6086   -0.3918 H         1 <0>         0.4237
     38 H8         -6.1157   13.7648    0.7628 H         1 <0>         0.0769
     39 H9         -4.9276   12.9220    1.7836 H         1 <0>         0.0667
     40 H10        -3.8470   15.0853    1.2557 H         1 <0>         0.0949
     41 H11        -2.7915   15.3019   -0.7845 H         1 <0>         0.0944
     42 H12        -3.8092   14.1862   -2.7474 H         1 <0>         0.0742
     43 H13        -2.9131   12.8900   -1.9249 H         1 <0>         0.0674
     44 H14         0.6597    5.7585    0.9050 H         1 <0>         0.4149
     45 H15         1.7181    4.1237    2.5324 H         1 <0>         0.1366
     46 H16         1.7067    1.7741    3.2640 H         1 <0>         0.1393
     47 H17        -0.1806    0.3083    2.6745 H         1 <0>         0.1392
     48 H18        -2.0739    3.5436    0.6420 H         1 <0>         0.1479
     49 O4         -5.1657   12.0340   -3.9827 O.co2     1 <0>        -0.7610
@<TRIPOS>BOND
     1    1    6 ar
     2    1    2 ar
     3    1   33 1
     4    2    3 ar
     5    2   34 1
     6    3    4 ar
     7    3   20 1
     8    4    5 ar
     9    4   35 1
    10    5    6 ar
    11    5    7 1
    12    6   36 1
    13    7    8 am
    14    7   37 1
    15    8    9 2
    16    8   10 1
    17   10   11 1
    18   10   16 1
    19   10   12 1
    20   12   13 1
    21   12   38 1
    22   12   39 1
    23   13   14 2
    24   13   40 1
    25   14   15 1
    26   14   41 1
    27   15   16 1
    28   15   42 1
    29   15   43 1
    30   16   17 1
    31   16   18 1
    32   18   19 2
    33   18   49 1
    34   20   21 2
    35   20   22 am
    36   22   23 1
    37   22   44 1
    38   23   28 ar
    39   23   24 ar
    40   24   25 ar
    41   24   45 1
    42   25   26 ar
    43   25   46 1
    44   26   27 ar
    45   26   47 1
    46   27   28 ar
    47   27   29 1
    48   28   48 1
    49   29   30 1
    50   29   31 1
    51   29   32 1
@<TRIPOS>MOLECULE
ZINC23041680
   47    49     0     0     0
SMALL
USER_CHARGES
N-[2-[[4-chloro-3-[(4-fluorophenyl)sulfonylamino]benzoyl]amino]ethyl]furan-2-carboxamide
@<TRIPOS>ATOM
      1 C1          9.3735    2.0382    1.3532 C.2       1 <0>        -0.2260
      2 C2          8.3649    3.0144    1.3458 C.2       1 <0>        -0.1206
      3 C3          7.1802    2.3536    1.1899 C.2       1 <0>        -0.0780
      4 O1          7.4459    1.0333    1.1108 O.3       1 <0>        -0.1644
      5 C4          8.7679    0.8395    1.2035 C.2       1 <0>        -0.0047
      6 C5          5.8512    2.9706    1.1261 C.2       1 <0>         0.6058
      7 O2          5.7364    4.1788    1.2150 O.2       1 <0>        -0.5230
      8 N1          4.7571    2.1994    0.9690 N.am      1 <0>        -0.7270
      9 C6          3.4296    2.8157    0.9053 C.3       1 <0>         0.1107
     10 C7          2.3700    1.7268    0.7252 C.3       1 <0>         0.1131
     11 N2          1.0424    2.3431    0.6615 N.am      1 <0>        -0.7419
     12 C8         -0.0517    1.5719    0.5044 C.2       1 <0>         0.5643
     13 O3          0.0630    0.3650    0.4156 O.2       1 <0>        -0.5328
     14 C9         -1.3905    2.1942    0.4340 C.ar      1 <0>        -0.1050
     15 C10        -1.5252    3.5798    0.5415 C.ar      1 <0>        -0.1580
     16 C11        -2.7751    4.1591    0.4703 C.ar      1 <0>        -0.0930
     17 C12        -3.8997    3.3704    0.3038 C.ar      1 <0>        -0.0555
     18 C13        -3.7762    1.9885    0.2009 C.ar      1 <0>         0.2403
     19 C14        -2.5240    1.3983    0.2656 C.ar      1 <0>        -0.1718
     20 N3         -4.9149    1.1956    0.0319 N.2       1 <0>        -1.0412
     21 S1         -4.9957   -0.2991    0.7402 S.o2      1 <0>         2.5893
     22 O4         -6.3067   -0.7920    0.5002 O.2       1 <0>        -0.9895
     23 O5         -3.8306   -1.0043    0.3345 O.2       1 <0>        -1.0271
     24 C15        -4.8586   -0.0590    2.4804 C.ar      1 <0>        -0.6679
     25 C16        -3.6148   -0.0727    3.0837 C.ar      1 <0>         0.0014
     26 C17        -3.5057    0.1203    4.4478 C.ar      1 <0>        -0.1784
     27 C18        -4.6436    0.3169    5.2118 C.ar      1 <0>         0.1269
     28 C19        -5.8892    0.3251    4.6072 C.ar      1 <0>        -0.1804
     29 C20        -5.9954    0.1371    3.2422 C.ar      1 <0>         0.0039
     30 F1         -4.5385    0.5009    6.5460 F         1 <0>        -0.1423
     31 Cl1        -5.4694    4.1074    0.2225 Cl        1 <0>        -0.0775
     32 H1         10.4341    2.2124    1.4588 H         1 <0>         0.1570
     33 H2          8.4998    4.0814    1.4440 H         1 <0>         0.1602
     34 H3          9.2673   -0.1175    1.1691 H         1 <0>         0.2111
     35 H4          4.8609    1.1073    0.8886 H         1 <0>         0.4323
     36 H5          3.2355    3.3656    1.8380 H         1 <0>         0.0782
     37 H6          3.3888    3.5114    0.0543 H         1 <0>         0.0785
     38 H7          2.5642    1.1770   -0.2075 H         1 <0>         0.0729
     39 H8          2.4109    1.0311    1.5762 H         1 <0>         0.0725
     40 H9          0.9386    3.4352    0.7419 H         1 <0>         0.4219
     41 H10        -0.6503    4.1985    0.6764 H         1 <0>         0.1158
     42 H11        -2.8767    5.2314    0.5496 H         1 <0>         0.1227
     43 H12        -2.4258    0.3258    0.1856 H         1 <0>         0.1683
     44 H13        -2.7277   -0.2301    2.4881 H         1 <0>         0.1439
     45 H14        -2.5336    0.1137    4.9183 H         1 <0>         0.1348
     46 H15        -6.7774    0.4787    5.2021 H         1 <0>         0.1358
     47 H16        -6.9669    0.1439    2.7704 H         1 <0>         0.1443
@<TRIPOS>BOND
     1    1    5 2
     2    1    2 1
     3    1   32 1
     4    2    3 2
     5    2   33 1
     6    3    4 1
     7    3    6 1
     8    4    5 1
     9    5   34 1
    10    6    7 2
    11    6    8 am
    12    8    9 1
    13    8   35 1
    14    9   10 1
    15    9   36 1
    16    9   37 1
    17   10   11 1
    18   10   38 1
    19   10   39 1
    20   11   12 am
    21   11   40 1
    22   12   13 2
    23   12   14 1
    24   14   19 ar
    25   14   15 ar
    26   15   16 ar
    27   15   41 1
    28   16   17 ar
    29   16   42 1
    30   17   18 ar
    31   17   31 1
    32   18   19 ar
    33   18   20 1
    34   19   43 1
    35   20   21 1
    36   21   22 2
    37   21   23 2
    38   21   24 1
    39   24   29 ar
    40   24   25 ar
    41   25   26 ar
    42   25   44 1
    43   26   27 ar
    44   26   45 1
    45   27   28 ar
    46   27   30 1
    47   28   29 ar
    48   28   46 1
    49   29   47 1
@<TRIPOS>MOLECULE
ZINC39861959
   40    42     0     0     0
SMALL
USER_CHARGES

@<TRIPOS>ATOM
      1 C1          0.9148    2.6096    1.0915 C.ar      1 <0>        -0.0874
      2 C2          2.2123    3.0717    0.9602 C.ar      1 <0>        -0.1012
      3 C3          3.2464    2.1832    0.7449 C.ar      1 <0>        -0.0087
      4 C4          2.9802    0.8129    0.6599 C.ar      1 <0>        -0.0012
      5 C5          1.6678    0.3537    0.7939 C.ar      1 <0>        -0.0715
      6 C6          0.6436    1.2540    1.0085 C.ar      1 <0>        -0.0364
      7 Cl1        -0.9883    0.6856    1.1747 Cl        1 <0>        -0.0587
      8 C7          4.0801   -0.1431    0.4294 C.2       1 <0>         0.0429
      9 C8          4.3192   -1.2845    1.1606 C.2       1 <0>        -0.1952
     10 C9          5.4502   -1.8928    0.6101 C.2       1 <0>        -0.1516
     11 C10         5.8611   -1.0949   -0.4427 C.2       1 <0>        -0.0106
     12 O1          5.0142   -0.0483   -0.5345 O.3       1 <0>        -0.0775
     13 C11         6.9711   -1.3369   -1.2800 C.2       1 <0>         0.0704
     14 C12         7.1857   -0.5487   -2.3738 C.2       1 <0>        -0.2043
     15 C13         6.3510    0.4599   -2.9448 C.2       1 <0>         0.5330
     16 O2          5.2686    0.7293   -2.4558 O.2       1 <0>        -0.4198
     17 N1          6.7889    1.0923   -4.0195 N.am      1 <0>        -0.4789
     18 C14         7.9903    0.7933   -4.5616 C.2       1 <0>         0.3122
     19 S1          8.7475    1.4783   -5.9357 S.2       1 <0>        -0.3176
     20 S2          8.5913   -0.4923   -3.4767 S.3       1 <0>         0.0064
     21 C15         5.9594    2.1326   -4.6327 C.3       1 <0>         0.0664
     22 H1          5.0331    2.2385   -4.0680 H         1 <0>         0.1152
     23 C16         6.7176    3.4614   -4.6227 C.3       1 <0>        -0.1558
     24 C17         6.9296    3.9081   -3.1991 C.2       1 <0>         0.5077
     25 O3          6.5149    3.2303   -2.2827 O.2       1 <0>        -0.5273
     26 N2          7.5799    5.0607   -2.9441 N.am      1 <0>        -0.8600
     27 C18         5.6398    1.7473   -6.0542 C.2       1 <0>         0.5045
     28 O4          6.0655    0.7008   -6.5125 O.co2     1 <0>        -0.6623
     29 O5          4.9556    2.4822   -6.7458 O.co2     1 <0>        -0.6772
     30 Cl2         4.8735    2.7653    0.5793 Cl        1 <0>        -0.0193
     31 H2          0.1101    3.3090    1.2640 H         1 <0>         0.1453
     32 H3          2.4164    4.1302    1.0261 H         1 <0>         0.1471
     33 H4          1.4549   -0.7031    0.7290 H         1 <0>         0.1474
     34 H5          3.7422   -1.6419    2.0007 H         1 <0>         0.1550
     35 H6          5.9143   -2.8096    0.9425 H         1 <0>         0.1601
     36 H7          7.6507   -2.1457   -1.0555 H         1 <0>         0.1756
     37 H8          7.6838    3.3322   -5.1105 H         1 <0>         0.1221
     38 H9          6.1385    4.2143   -5.1573 H         1 <0>         0.1176
     39 H10         7.9115    5.6028   -3.6770 H         1 <0>         0.3998
     40 H11         7.7163    5.3482   -2.0278 H         1 <0>         0.3938
@<TRIPOS>BOND
     1    1    6 ar
     2    1    2 ar
     3    1   31 1
     4    2    3 ar
     5    2   32 1
     6    3    4 ar
     7    3   30 1
     8    4    5 ar
     9    4    8 1
    10    5    6 ar
    11    5   33 1
    12    6    7 1
    13    8   12 1
    14    8    9 2
    15    9   10 1
    16    9   34 1
    17   10   11 2
    18   10   35 1
    19   11   12 1
    20   11   13 1
    21   13   14 2
    22   13   36 1
    23   14   20 1
    24   14   15 1
    25   15   16 2
    26   15   17 am
    27   17   18 1
    28   17   21 1
    29   18   19 2
    30   18   20 1
    31   21   22 1
    32   21   23 1
    33   21   27 1
    34   23   24 1
    35   23   37 1
    36   23   38 1
    37   24   25 2
    38   24   26 am
    39   26   39 1
    40   26   40 1
    41   27   28 2
    42   27   29 1
@<TRIPOS>MOLECULE
ZINC18707257
   36    37     0     0     0
SMALL
USER_CHARGES

@<TRIPOS>ATOM
      1 C1          0.0049    1.3768   -0.2537 C.ar      1 <0>        -0.1675
      2 C2          1.2057    2.0565   -0.3127 C.ar      1 <0>        -0.1355
      3 C3          2.3959    1.3858   -0.0649 C.ar      1 <0>         0.1838
      4 C4          2.3788    0.0316    0.2424 C.ar      1 <0>        -0.0683
      5 C5          1.1784   -0.6480    0.3010 C.ar      1 <0>        -0.0933
      6 C6         -0.0122    0.0229    0.0536 C.ar      1 <0>         0.2413
      7 N1         -1.2295   -0.6659    0.1139 N.2       1 <0>        -1.0832
      8 S1         -2.6491    0.1341   -0.1812 S.o2      1 <0>         2.6003
      9 O1         -2.8129    1.0728    0.8730 O.2       1 <0>        -1.0177
     10 O2         -2.6207    0.5210   -1.5482 O.2       1 <0>        -1.0167
     11 C7         -3.9526   -1.0400   -0.0171 C.ar      1 <0>        -0.6172
     12 C8         -4.3677   -1.7699   -1.1152 C.ar      1 <0>         0.0579
     13 C9         -5.3903   -2.6910   -0.9865 C.ar      1 <0>        -0.2115
     14 C10        -5.9976   -2.8827    0.2405 C.ar      1 <0>         0.0132
     15 C11        -5.5819   -2.1534    1.3388 C.ar      1 <0>        -0.2115
     16 C12        -4.5563   -1.2354    1.2110 C.ar      1 <0>         0.0590
     17 C13        -6.2442   -2.3620    2.6763 C.3       1 <0>         0.5160
     18 F1         -7.2418   -3.3353    2.5560 F         1 <0>        -0.1756
     19 F2         -5.2902   -2.7848    3.6082 F         1 <0>        -0.1691
     20 F3         -6.8153   -1.1595    3.1064 F         1 <0>        -0.1712
     21 C14        -5.8435   -3.4860   -2.1838 C.3       1 <0>         0.5158
     22 F4         -5.1026   -4.6699   -2.2652 F         1 <0>        -0.1704
     23 F5         -7.2018   -3.7941   -2.0521 F         1 <0>        -0.1754
     24 F6         -5.6469   -2.7320   -3.3458 F         1 <0>        -0.1699
     25 N2          3.6476   -0.6833    0.5066 N.pl3     1 <0>         0.0505
     26 O3          3.7917   -1.8208    0.1230 O.2       1 <0>        -0.1690
     27 O4          4.5398   -0.1299    1.1059 O.3       1 <0>        -0.1942
     28 N3          3.6132    2.0747   -0.1252 N.pl3     1 <0>        -0.8785
     29 H1         -0.9213    1.8995   -0.4420 H         1 <0>         0.1161
     30 H2          1.2190    3.1095   -0.5521 H         1 <0>         0.1296
     31 H3          1.1652   -1.7012    0.5396 H         1 <0>         0.1394
     32 H4         -3.8933   -1.6202   -2.0738 H         1 <0>         0.1616
     33 H5         -6.7970   -3.6018    0.3409 H         1 <0>         0.1554
     34 H6         -4.2290   -0.6683    2.0700 H         1 <0>         0.1594
     35 H7          3.6201    3.0392   -0.2284 H         1 <0>         0.3973
     36 H8          4.4497    1.5875   -0.0639 H         1 <0>         0.3991
@<TRIPOS>BOND
     1    1    6 ar
     2    1    2 ar
     3    1   29 1
     4    2    3 ar
     5    2   30 1
     6    3    4 ar
     7    3   28 1
     8    4    5 ar
     9    4   25 1
    10    5    6 ar
    11    5   31 1
    12    6    7 1
    13    7    8 1
    14    8    9 2
    15    8   10 2
    16    8   11 1
    17   11   16 ar
    18   11   12 ar
    19   12   13 ar
    20   12   32 1
    21   13   14 ar
    22   13   21 1
    23   14   15 ar
    24   14   33 1
    25   15   16 ar
    26   15   17 1
    27   16   34 1
    28   17   18 1
    29   17   19 1
    30   17   20 1
    31   21   22 1
    32   21   23 1
    33   21   24 1
    34   25   26 2
    35   25   27 1
    36   28   35 1
    37   28   36 1
@<TRIPOS>MOLECULE
ZINC64774637
   53    55     0     0     0
SMALL
USER_CHARGES

@<TRIPOS>ATOM
      1 C1          0.0600    0.2477   -0.2639 C.3       1 <0>        -0.1420
      2 C2          0.3100   -1.2489   -0.4600 C.3       1 <0>        -0.1106
      3 H1          0.7954   -1.6555    0.4272 H         1 <0>         0.1236
      4 C3         -1.0039   -1.9530   -0.6809 C.2       1 <0>         0.5436
      5 O1         -1.3532   -2.2465   -1.8048 O.2       1 <0>        -0.4940
      6 N1         -1.7909   -2.2565    0.3702 N.am      1 <0>        -0.6628
      7 C4         -3.0534   -2.8244    0.1588 C.ar      1 <0>         0.1541
      8 C5         -3.2903   -3.5909   -0.9738 C.ar      1 <0>        -0.1452
      9 C6         -4.5384   -4.1509   -1.1796 C.ar      1 <0>         0.1150
     10 C7         -5.5509   -3.9474   -0.2568 C.ar      1 <0>        -0.1470
     11 C8         -5.3179   -3.1840    0.8720 C.ar      1 <0>        -0.1028
     12 C9         -4.0705   -2.6263    1.0860 C.ar      1 <0>         0.0567
     13 F1         -3.8420   -1.8851    2.1922 F         1 <0>        -0.1323
     14 F2         -4.7700   -4.8968   -2.2820 F         1 <0>        -0.1301
     15 S1          1.3802   -1.4991   -1.9031 S.3       1 <0>         0.0476
     16 C10         2.9071   -0.7542   -1.4358 C.ar      1 <0>         0.2679
     17 N2          3.9271   -0.7638   -2.2866 N.ar      1 <0>        -0.5624
     18 C11         5.0766   -0.2025   -1.9339 C.ar      1 <0>         0.4330
     19 O2          6.1330   -0.1975   -2.7818 O.3       1 <0>        -0.6448
     20 C12         5.1744    0.3876   -0.6606 C.ar      1 <0>        -0.0473
     21 N3          4.1173    0.3635    0.1431 N.ar      1 <0>        -0.1765
     22 N4          3.0190   -0.1869   -0.2408 N.ar      1 <0>        -0.3983
     23 C13         6.4376    1.0257   -0.2226 C.ar      1 <0>        -0.0135
     24 C14         7.6507    0.3580   -0.3798 C.ar      1 <0>        -0.0596
     25 C15         8.8245    0.9568    0.0299 C.ar      1 <0>        -0.1422
     26 C16         8.8029    2.2192    0.5974 C.ar      1 <0>        -0.1101
     27 C17         7.6067    2.8912    0.7590 C.ar      1 <0>        -0.1371
     28 C18         6.4193    2.3050    0.3460 C.ar      1 <0>         0.1580
     29 N5          5.2090    2.9857    0.5029 N.am      1 <0>        -0.6520
     30 C19         5.0587    3.8700    1.5088 C.2       1 <0>         0.5189
     31 O3          5.9989    4.1372    2.2269 O.2       1 <0>        -0.5296
     32 C20         3.7224    4.5267    1.7414 C.3       1 <0>        -0.1144
     33 C21         3.8228    5.4789    2.9348 C.3       1 <0>        -0.1296
     34 C22         3.3169    5.3139    0.4936 C.3       1 <0>        -0.1458
     35 H2          1.0104    0.7570   -0.1041 H         1 <0>         0.0983
     36 H3         -0.4254    0.6543   -1.1511 H         1 <0>         0.0673
     37 H4         -0.5831    0.3981    0.6033 H         1 <0>         0.0637
     38 H5         -1.4829   -2.0816    1.2732 H         1 <0>         0.4209
     39 H6         -2.5011   -3.7496   -1.6938 H         1 <0>         0.1744
     40 H7         -6.5245   -4.3856   -0.4196 H         1 <0>         0.1463
     41 H8         -6.1096   -3.0264    1.5895 H         1 <0>         0.1501
     42 H9          7.6721   -0.6273   -0.8214 H         1 <0>         0.1261
     43 H10         9.7639    0.4383   -0.0925 H         1 <0>         0.1188
     44 H11         9.7258    2.6809    0.9158 H         1 <0>         0.1188
     45 H12         7.5966    3.8757    1.2029 H         1 <0>         0.1442
     46 H13         4.4771    2.8219   -0.1123 H         1 <0>         0.4085
     47 H14         2.9731    3.7626    1.9483 H         1 <0>         0.1020
     48 H15         4.5721    6.2430    2.7278 H         1 <0>         0.0610
     49 H16         2.8563    5.9538    3.1030 H         1 <0>         0.0601
     50 H17         4.1117    4.9181    3.8237 H         1 <0>         0.0621
     51 H18         2.3503    5.7888    0.6619 H         1 <0>         0.0690
     52 H19         4.0661    6.0780    0.2867 H         1 <0>         0.0611
     53 H20         3.2453    4.6355   -0.3566 H         1 <0>         0.0585
@<TRIPOS>BOND
     1    1    2 1
     2    1   35 1
     3    1   36 1
     4    1   37 1
     5    2    3 1
     6    2    4 1
     7    2   15 1
     8    4    5 2
     9    4    6 am
    10    6    7 1
    11    6   38 1
    12    7   12 ar
    13    7    8 ar
    14    8    9 ar
    15    8   39 1
    16    9   10 ar
    17    9   14 1
    18   10   11 ar
    19   10   40 1
    20   11   12 ar
    21   11   41 1
    22   12   13 1
    23   15   16 1
    24   16   17 ar
    25   16   22 ar
    26   17   18 ar
    27   18   19 1
    28   18   20 ar
    29   20   21 ar
    30   20   23 1
    31   21   22 ar
    32   23   28 ar
    33   23   24 ar
    34   24   25 ar
    35   24   42 1
    36   25   26 ar
    37   25   43 1
    38   26   27 ar
    39   26   44 1
    40   27   28 ar
    41   27   45 1
    42   28   29 1
    43   29   30 am
    44   29   46 1
    45   30   31 2
    46   30   32 1
    47   32   33 1
    48   32   34 1
    49   32   47 1
    50   33   48 1
    51   33   49 1
    52   33   50 1
    53   34   51 1
    54   34   52 1
    55   34   53 1
@<TRIPOS>MOLECULE
ZINC23625773
   41    43     0     0     0
SMALL
USER_CHARGES
(1R,4S,5S,6R)-6-[(4-methanesulfonamidophenyl)carbamoyl]bicyclo[2.2.1]hept-2-ene-5-carboxylic acid
@<TRIPOS>ATOM
      1 C1         10.3246   -0.7151    3.8817 C.3       1 <0>        -0.6735
      2 S1         10.2038   -2.5229    3.9693 S.o2      1 <0>         2.6149
      3 O1          9.4741   -2.9092    5.1259 O.2       1 <0>        -0.9563
      4 O2         11.4633   -3.1124    3.6770 O.2       1 <0>        -0.9656
      5 N1          9.2333   -2.9468    2.6962 N.pl3     1 <0>        -1.0654
      6 C2          7.9197   -2.4703    2.6292 C.ar      1 <0>         0.1033
      7 C3          7.4202   -1.9768    1.4308 C.ar      1 <0>        -0.1104
      8 C4          6.1240   -1.5062    1.3650 C.ar      1 <0>        -0.0965
      9 C5          5.3196   -1.5262    2.4966 C.ar      1 <0>         0.1788
     10 C6          5.8205   -2.0147    3.6960 C.ar      1 <0>        -0.1361
     11 C7          7.1150   -2.4903    3.7610 C.ar      1 <0>        -0.1395
     12 N2          4.0039   -1.0480    2.4296 N.am      1 <0>        -0.6671
     13 C8          3.2891   -1.1984    1.2970 C.2       1 <0>         0.5301
     14 O3          3.7515   -1.8244    0.3666 O.2       1 <0>        -0.5296
     15 C9          1.9153   -0.5889    1.1865 C.3       1 <0>        -0.0850
     16 H1          1.4170   -0.8520    2.1312 H         1 <0>         0.0855
     17 C10         1.1820   -1.1152   -0.0882 C.3       1 <0>        -0.0493
     18 H2          1.2177   -2.2053   -0.2310 H         1 <0>         0.0972
     19 C11         1.7888   -0.1810   -1.1981 C.3       1 <0>        -0.1044
     20 C12         1.3244    1.1350   -0.4733 C.3       1 <0>        -0.0309
     21 H3          1.4865    2.1016   -0.9726 H         1 <0>         0.0979
     22 C13         2.0148    0.9377    0.9477 C.3       1 <0>        -0.1267
     23 H4          1.5816    1.5315    1.7660 H         1 <0>         0.0841
     24 C14         3.4566    1.3734    0.8985 C.2       1 <0>         0.4596
     25 O4          4.0567    1.3586   -0.1501 O.co2     1 <0>        -0.6231
     26 O5          4.0741    1.7778    2.0195 O.co2     1 <0>        -0.7627
     27 C15        -0.1435    0.7811   -0.2050 C.2       1 <0>        -0.1707
     28 C16        -0.2256   -0.5155    0.0168 C.2       1 <0>        -0.1916
     29 H5         10.8909   -0.4286    2.9833 H         1 <0>         0.1300
     30 H6         10.8415   -0.3384    4.7766 H         1 <0>         0.1292
     31 H7          9.3146   -0.2821    3.8321 H         1 <0>         0.1348
     32 H8          9.6215   -3.6030    1.9033 H         1 <0>         0.4475
     33 H9          8.0457   -1.9615    0.5505 H         1 <0>         0.1257
     34 H10         5.7357   -1.1221    0.4332 H         1 <0>         0.1441
     35 H11         5.1960   -2.0264    4.5771 H         1 <0>         0.1276
     36 H12         7.5032   -2.8740    4.6929 H         1 <0>         0.1538
     37 H13         3.5547   -0.5499    3.3014 H         1 <0>         0.4358
     38 H14         2.8730   -0.3525   -1.2691 H         1 <0>         0.0995
     39 H15         1.3176   -0.4075   -2.1659 H         1 <0>         0.0624
     40 H16        -1.0506    1.4027   -0.1753 H         1 <0>         0.1214
     41 H17        -1.2012   -0.9761    0.2315 H         1 <0>         0.1214
@<TRIPOS>BOND
     1    1    2 1
     2    1   29 1
     3    1   30 1
     4    1   31 1
     5    2    3 2
     6    2    4 2
     7    2    5 1
     8    5    6 1
     9    5   32 1
    10    6   11 ar
    11    6    7 ar
    12    7    8 ar
    13    7   33 1
    14    8    9 ar
    15    8   34 1
    16    9   10 ar
    17    9   12 1
    18   10   11 ar
    19   10   35 1
    20   11   36 1
    21   12   13 am
    22   12   37 1
    23   13   14 2
    24   13   15 1
    25   15   16 1
    26   15   22 1
    27   15   17 1
    28   17   18 1
    29   17   28 1
    30   17   19 1
    31   19   20 1
    32   19   38 1
    33   19   39 1
    34   20   21 1
    35   20   22 1
    36   20   27 1
    37   22   23 1
    38   22   24 1
    39   24   25 2
    40   24   26 1
    41   27   28 2
    42   27   40 1
    43   28   41 1
@<TRIPOS>MOLECULE
ZINC38005959
   26    27     0     0     0
SMALL
USER_CHARGES

@<TRIPOS>ATOM
      1 C1         -0.0168    1.3859    0.0097 C.2       1 <0>        -0.0765
      2 C2          1.2106    1.9981    0.0012 C.2       1 <0>        -0.6740
      3 C3          2.3317    1.2301   -0.0136 C.2       1 <0>        -0.2055
      4 S1          1.7515   -0.3465   -0.0165 S.3       1 <0>         0.3163
      5 C4          0.0021   -0.0041    0.0020 C.2       1 <0>        -0.1697
      6 C5         -1.0853   -0.9117    0.0079 C.2       1 <0>         0.5476
      7 O1         -2.2354   -0.4898    0.0216 O.co2     1 <0>        -0.6587
      8 O2         -0.8757   -2.1188   -0.0006 O.co2     1 <0>        -0.6746
      9 Br1         4.1332    1.8049   -0.0283 Br        1 <0>         0.0429
     10 S2          1.3320    3.7558    0.0089 S.o2      1 <0>         2.7019
     11 O3          2.2441    4.1044   -1.0235 O.2       1 <0>        -0.9495
     12 O4          0.0021    4.2547    0.0510 O.2       1 <0>        -0.9569
     13 N1          2.0462    4.1910    1.4382 N.pl3     1 <0>        -1.1101
     14 C6          3.4300    3.7979    1.7152 C.3       1 <0>         0.1816
     15 C7          3.9589    4.6037    2.8736 C.2       1 <0>        -0.2477
     16 C8          4.5903    5.7976    2.7905 C.2       1 <0>         0.0787
     17 N2          4.9037    6.1854    4.0445 N.pl3     1 <0>        -0.4775
     18 H1          5.3620    7.0040    4.2909 H         1 <0>         0.4398
     19 N3          4.4500    5.1971    4.9275 N.2       1 <0>        -0.2958
     20 C9          3.8785    4.2526    4.2252 C.2       1 <0>         0.0677
     21 H2         -0.9389    1.9479    0.0258 H         1 <0>         0.1649
     22 H3          1.5483    4.7063    2.0921 H         1 <0>         0.4186
     23 H4          3.4633    2.7374    1.9651 H         1 <0>         0.0795
     24 H5          4.0437    3.9829    0.8336 H         1 <0>         0.0899
     25 H6          4.8050    6.3426    1.8831 H         1 <0>         0.1800
     26 H7          3.4258    3.3553    4.6205 H         1 <0>         0.1867
@<TRIPOS>BOND
     1    1    5 2
     2    1    2 1
     3    1   21 1
     4    2    3 2
     5    2   10 1
     6    3    4 1
     7    3    9 1
     8    4    5 1
     9    5    6 1
    10    6    7 2
    11    6    8 1
    12   10   11 2
    13   10   12 2
    14   10   13 1
    15   13   14 1
    16   13   22 1
    17   14   15 1
    18   14   23 1
    19   14   24 1
    20   15   20 1
    21   15   16 2
    22   16   17 1
    23   16   25 1
    24   17   18 1
    25   17   19 1
    26   19   20 2
    27   20   26 1
@<TRIPOS>MOLECULE
ZINC55650573
   37    38     0     0     0
SMALL
USER_CHARGES

@<TRIPOS>ATOM
      1 C1         -0.0187    1.5258    0.0104 C.3       1 <0>        -0.1490
      2 C2          0.0021   -0.0041    0.0020 C.3       1 <0>        -0.0416
      3 C3          0.7074   -0.4901   -1.2379 C.2       1 <0>        -0.1326
      4 C4          2.0229   -0.7610   -1.4208 C.2       1 <0>        -0.1846
      5 C5          2.4507   -1.2017   -2.6591 C.2       1 <0>        -0.0368
      6 C6          1.5420   -1.3499   -3.6540 C.2       1 <0>        -0.6743
      7 S1          0.0261   -0.8658   -2.8447 S.3       1 <0>         0.1433
      8 S2          1.7913   -1.8871   -5.3134 S.o2      1 <0>         2.6336
      9 O1          0.7170   -1.3571   -6.0777 O.2       1 <0>        -1.0204
     10 O2          3.1520   -1.6223   -5.6260 O.2       1 <0>        -1.0215
     11 N1          1.6144   -3.5336   -5.3268 N.2       1 <0>        -1.0812
     12 C7          1.7590   -4.2419   -6.5220 C.ar      1 <0>         0.2638
     13 C8          2.0568   -3.5672   -7.6994 C.ar      1 <0>        -0.2127
     14 C9          2.1995   -4.2705   -8.8791 C.ar      1 <0>        -0.0859
     15 C10         2.0458   -5.6449   -8.8896 C.ar      1 <0>        -0.1262
     16 C11         1.7490   -6.3194   -7.7197 C.ar      1 <0>        -0.6270
     17 C12         1.6110   -5.6228   -6.5350 C.ar      1 <0>        -0.0479
     18 C13         1.2940   -6.3595   -5.2591 C.3       1 <0>        -0.1113
     19 S3          1.5531   -8.0704   -7.7389 S.o2      1 <0>         2.7015
     20 O3          0.3417   -8.3511   -7.0511 O.2       1 <0>        -0.9695
     21 O4          1.7846   -8.4903   -9.0766 O.2       1 <0>        -0.9811
     22 N2          2.7761   -8.7100   -6.8237 N.pl3     1 <0>        -1.2524
     23 H1          1.0039    1.9031    0.0027 H         1 <0>         0.0590
     24 H2         -0.5459    1.8868   -0.8726 H         1 <0>         0.0592
     25 H3         -0.5289    1.8773    0.9072 H         1 <0>         0.0637
     26 H4          0.5293   -0.3651    0.8851 H         1 <0>         0.0866
     27 H5         -1.0205   -0.3814    0.0098 H         1 <0>         0.0810
     28 H6          2.7264   -0.6342   -0.6112 H         1 <0>         0.1347
     29 H7          3.4933   -1.4243   -2.8315 H         1 <0>         0.1420
     30 H8          2.1762   -2.4938   -7.6921 H         1 <0>         0.1049
     31 H9          2.4310   -3.7466   -9.7948 H         1 <0>         0.1146
     32 H10         2.1576   -6.1925   -9.8137 H         1 <0>         0.1270
     33 H11         0.2129   -6.4277   -5.1379 H         1 <0>         0.0762
     34 H12         1.7186   -7.3624   -5.3036 H         1 <0>         0.0448
     35 H13         1.7213   -5.8213   -4.4130 H         1 <0>         0.0877
     36 H14         3.4241   -8.1238   -6.4024 H         1 <0>         0.4183
     37 H15         2.8446   -9.6707   -6.7090 H         1 <0>         0.4140
@<TRIPOS>BOND
     1    1    2 1
     2    1   23 1
     3    1   24 1
     4    1   25 1
     5    2    3 1
     6    2   26 1
     7    2   27 1
     8    3    7 1
     9    3    4 2
    10    4    5 1
    11    4   28 1
    12    5    6 2
    13    5   29 1
    14    6    7 1
    15    6    8 1
    16    8    9 2
    17    8   10 2
    18    8   11 1
    19   11   12 1
    20   12   17 ar
    21   12   13 ar
    22   13   14 ar
    23   13   30 1
    24   14   15 ar
    25   14   31 1
    26   15   16 ar
    27   15   32 1
    28   16   17 ar
    29   16   19 1
    30   17   18 1
    31   18   33 1
    32   18   34 1
    33   18   35 1
    34   19   20 2
    35   19   21 2
    36   19   22 1
    37   22   36 1
    38   22   37 1
@<TRIPOS>MOLECULE
ZINC36354471
   39    41     0     0     0
SMALL
USER_CHARGES

@<TRIPOS>ATOM
      1 C1         -0.6167    1.5067   -2.1653 C.3       1 <0>        -0.1694
      2 C2         -0.6037   -0.0002   -2.1694 C.2       1 <0>         0.5066
      3 O1         -1.1366   -0.6088   -3.0731 O.2       1 <0>        -0.5200
      4 N1          0.0001   -0.6716   -1.1688 N.am      1 <0>        -0.6753
      5 C3         -0.0708   -2.0682   -1.1208 C.ar      1 <0>         0.1729
      6 C4         -0.1517   -2.7192    0.1032 C.ar      1 <0>        -0.1694
      7 C5         -0.2215   -4.0979    0.1472 C.ar      1 <0>        -0.0055
      8 C6         -0.2108   -4.8300   -1.0259 C.ar      1 <0>        -0.6256
      9 C7         -0.1298   -4.1848   -2.2463 C.ar      1 <0>        -0.0055
     10 C8         -0.0660   -2.8061   -2.2973 C.ar      1 <0>        -0.1453
     11 S1         -0.3000   -6.5887   -0.9655 S.o2      1 <0>         2.6027
     12 O2          0.2766   -7.0663   -2.1733 O.2       1 <0>        -1.0304
     13 O3          0.1818   -6.9760    0.3140 O.2       1 <0>        -1.0315
     14 N2         -1.9035   -6.9995   -1.0117 N.2       1 <0>        -1.0832
     15 C9         -2.2820   -8.3461   -0.9772 C.ar      1 <0>         0.2709
     16 C10        -1.3064   -9.3385   -0.8982 C.ar      1 <0>        -0.1876
     17 C11        -1.6657  -10.6678   -0.8632 C.ar      1 <0>        -0.0753
     18 C12        -3.0068  -11.0241   -0.9066 C.ar      1 <0>        -0.0058
     19 C13        -3.9965  -10.0306   -0.9863 C.ar      1 <0>         0.0901
     20 C14        -3.6213   -8.6847   -1.0160 C.ar      1 <0>        -0.1450
     21 N3         -5.1957  -10.6673   -1.0131 N.2       1 <0>        -0.4401
     22 C15        -5.0098  -11.9540   -0.9565 C.2       1 <0>         0.1617
     23 N4         -3.6803  -12.2318   -0.8895 N.pl3     1 <0>        -0.5753
     24 C16        -6.1081  -12.9859   -0.9636 C.3       1 <0>         0.5630
     25 F1         -7.3042  -12.3910   -1.3790 F         1 <0>        -0.1505
     26 F2         -5.7710  -14.0196   -1.8440 F         1 <0>        -0.1723
     27 F3         -6.2685  -13.5050    0.3256 F         1 <0>        -0.1684
     28 H1         -1.5023    1.8610   -1.6379 H         1 <0>         0.0975
     29 H2          0.2774    1.8764   -1.6633 H         1 <0>         0.0816
     30 H3         -0.6345    1.8727   -3.1919 H         1 <0>         0.0967
     31 H4          0.4837   -0.1866   -0.4820 H         1 <0>         0.4112
     32 H5         -0.1598   -2.1480    1.0197 H         1 <0>         0.1291
     33 H6         -0.2841   -4.6048    1.0988 H         1 <0>         0.1414
     34 H7         -0.1213   -4.7594   -3.1607 H         1 <0>         0.1406
     35 H8         -0.0080   -2.3025   -3.2510 H         1 <0>         0.1416
     36 H9         -0.2625   -9.0635   -0.8647 H         1 <0>         0.1134
     37 H10        -0.9050  -11.4320   -0.8023 H         1 <0>         0.1147
     38 H11        -4.3744   -7.9128   -1.0731 H         1 <0>         0.1265
     39 H12        -3.2789  -13.1135   -0.8393 H         1 <0>         0.4191
@<TRIPOS>BOND
     1    1    2 1
     2    1   28 1
     3    1   29 1
     4    1   30 1
     5    2    3 2
     6    2    4 am
     7    4    5 1
     8    4   31 1
     9    5   10 ar
    10    5    6 ar
    11    6    7 ar
    12    6   32 1
    13    7    8 ar
    14    7   33 1
    15    8    9 ar
    16    8   11 1
    17    9   10 ar
    18    9   34 1
    19   10   35 1
    20   11   12 2
    21   11   13 2
    22   11   14 1
    23   14   15 1
    24   15   20 ar
    25   15   16 ar
    26   16   17 ar
    27   16   36 1
    28   17   18 ar
    29   17   37 1
    30   18   23 1
    31   18   19 ar
    32   19   20 ar
    33   19   21 1
    34   20   38 1
    35   21   22 2
    36   22   23 1
    37   22   24 1
    38   23   39 1
    39   24   25 1
    40   24   26 1
    41   24   27 1
@<TRIPOS>MOLECULE
ZINC66783527
   37    38     0     0     0
SMALL
USER_CHARGES

@<TRIPOS>ATOM
      1 C1         -0.0184    1.5028    0.0103 C.3       1 <0>        -0.1060
      2 C2          0.0021   -0.0041    0.0020 C.2       1 <0>        -0.0309
      3 C3          0.0067   -0.7285   -1.1658 C.2       1 <0>        -0.1835
      4 C4          0.0259   -2.0828   -1.1013 C.2       1 <0>        -0.2231
      5 S1          0.0382   -2.4164    0.5452 S.3       1 <0>         0.2115
      6 C5          0.0233   -0.7477    1.1721 C.2       1 <0>        -0.2537
      7 C6          0.0302   -0.2828    2.5623 C.2       1 <0>         0.6017
      8 O1          0.0163    0.9096    2.8053 O.2       1 <0>        -0.5319
      9 N1          0.0519   -1.1760    3.5714 N.am      1 <0>        -0.5089
     10 N2          0.0584   -0.7317    4.9001 N.am      1 <0>        -0.5395
     11 C7          0.0802   -1.6248    5.9092 C.2       1 <0>         0.5723
     12 O2          0.0940   -2.8163    5.6664 O.2       1 <0>        -0.4954
     13 C8          0.0871   -1.1573    7.3074 C.ar      1 <0>        -0.1979
     14 C9          0.0653    0.2111    7.5911 C.ar      1 <0>        -0.0670
     15 C10         0.0715    0.6417    8.9015 C.ar      1 <0>        -0.0278
     16 C11         0.0996   -0.2778    9.9407 C.ar      1 <0>        -0.0673
     17 C12         0.1217   -1.6314    9.6747 C.ar      1 <0>        -0.2302
     18 C13         0.1097   -2.0835    8.3611 C.ar      1 <0>         0.3328
     19 N3          0.1261   -3.4470    8.0918 N.2       1 <0>        -1.0361
     20 S2          0.1527   -4.5369    9.3383 S.o2      1 <0>         2.5177
     21 O3          1.3904   -4.3046    9.9967 O.2       1 <0>        -1.0270
     22 O4         -1.0785   -4.3388   10.0195 O.2       1 <0>        -1.0270
     23 C14         0.1679   -6.1634    8.5352 C.3       1 <0>        -0.6308
     24 F1          0.0504    1.9646    9.1747 F         1 <0>        -0.1598
     25 H1          1.0042    1.8801    0.0026 H         1 <0>         0.0754
     26 H2         -0.5455    1.8639   -0.8728 H         1 <0>         0.0643
     27 H3         -0.5286    1.8543    0.9071 H         1 <0>         0.0905
     28 H4         -0.0051   -0.2261   -2.1218 H         1 <0>         0.1376
     29 H5          0.0316   -2.7861   -1.9208 H         1 <0>         0.1887
     30 H6          0.0630   -2.1264    3.3777 H         1 <0>         0.4283
     31 H7          0.0474    0.2187    5.0937 H         1 <0>         0.4250
     32 H8          0.0441    0.9302    6.7856 H         1 <0>         0.1206
     33 H9          0.1046    0.0683   10.9637 H         1 <0>         0.1208
     34 H10         0.1443   -2.3406   10.4889 H         1 <0>         0.1193
     35 H11         1.0534   -6.2494    7.9054 H         1 <0>         0.1176
     36 H12         0.1858   -6.9440    9.2957 H         1 <0>         0.1019
     37 H13        -0.7263   -6.2741    7.9218 H         1 <0>         0.1176
@<TRIPOS>BOND
     1    1    2 1
     2    1   25 1
     3    1   26 1
     4    1   27 1
     5    2    6 2
     6    2    3 1
     7    3    4 2
     8    3   28 1
     9    4    5 1
    10    4   29 1
    11    5    6 1
    12    6    7 1
    13    7    8 2
    14    7    9 am
    15    9   10 1
    16    9   30 1
    17   10   11 am
    18   10   31 1
    19   11   12 2
    20   11   13 1
    21   13   18 ar
    22   13   14 ar
    23   14   15 ar
    24   14   32 1
    25   15   16 ar
    26   15   24 1
    27   16   17 ar
    28   16   33 1
    29   17   18 ar
    30   17   34 1
    31   18   19 1
    32   19   20 1
    33   20   21 2
    34   20   22 2
    35   20   23 1
    36   23   35 1
    37   23   36 1
    38   23   37 1
@<TRIPOS>MOLECULE
ZINC13250901
   44    46     0     0     0
SMALL
USER_CHARGES
1-[2-(N'-(1,3-benzodioxole-5-carbonyl)hydrazino)-2-oxo-ethyl]cyclohexane-1-carboxylic acid
@<TRIPOS>ATOM
      1 C1          2.8559   -1.6273    1.7374 C.ar      1 <0>        -0.0696
      2 C2          1.5893   -1.5167    1.2059 C.ar      1 <0>        -0.1042
      3 C3          1.1637   -0.3138    0.6593 C.ar      1 <0>         0.0599
      4 C4          2.0186    0.7895    0.6460 C.ar      1 <0>         0.0221
      5 C5          3.2892    0.6843    1.1763 C.ar      1 <0>        -0.0372
      6 C6          3.7164   -0.5273    1.7266 C.ar      1 <0>        -0.1151
      7 C7          5.0735   -0.6440    2.2954 C.2       1 <0>         0.5613
      8 O1          5.8214    0.3146    2.2852 O.2       1 <0>        -0.5404
      9 N1          5.4836   -1.8130    2.8260 N.am      1 <0>        -0.5096
     10 N2          6.7717   -1.9237    3.3658 N.am      1 <0>        -0.5337
     11 C8          7.1818   -3.0928    3.8964 C.2       1 <0>         0.5154
     12 O2          6.4358   -4.0490    3.9066 O.2       1 <0>        -0.5000
     13 C9          8.5673   -3.2119    4.4771 C.3       1 <0>        -0.1023
     14 C10         8.7358   -4.5920    5.1156 C.3       1 <0>        -0.0819
     15 C11        10.0890   -4.6636    5.8260 C.3       1 <0>        -0.0949
     16 C12        11.2105   -4.4305    4.8116 C.3       1 <0>        -0.1202
     17 C13        11.1472   -5.5062    3.7254 C.3       1 <0>        -0.1168
     18 C14         9.7940   -5.4346    3.0150 C.3       1 <0>        -0.1228
     19 C15         8.6726   -5.6677    4.0294 C.3       1 <0>        -0.0995
     20 C16         7.6312   -4.8215    6.1147 C.2       1 <0>         0.4808
     21 O3          6.9295   -5.8010    6.0251 O.co2     1 <0>        -0.6250
     22 O4          1.3680    1.8373    0.0602 O.3       1 <0>        -0.3049
     23 C17        -0.0278    1.4851    0.0865 C.3       1 <0>         0.2122
     24 O5         -0.0184    0.0455    0.0821 O.3       1 <0>        -0.3052
     25 H1          3.1833   -2.5648    2.1620 H         1 <0>         0.1466
     26 H2          0.9255   -2.3685    1.2149 H         1 <0>         0.1464
     27 H3          3.9517    1.5372    1.1665 H         1 <0>         0.1518
     28 H4          4.8870   -2.5778    2.8341 H         1 <0>         0.4307
     29 H5          7.3684   -1.1590    3.3577 H         1 <0>         0.4277
     30 H6          9.3054   -3.0854    3.6850 H         1 <0>         0.0907
     31 H7          8.7114   -2.4412    5.2344 H         1 <0>         0.0994
     32 H8         10.1341   -3.8973    6.5999 H         1 <0>         0.0674
     33 H9         10.2091   -5.6468    6.2809 H         1 <0>         0.0585
     34 H10        12.1745   -4.4815    5.3177 H         1 <0>         0.0552
     35 H11        11.0904   -3.4473    4.3568 H         1 <0>         0.0593
     36 H12        11.2673   -6.4894    4.1803 H         1 <0>         0.0587
     37 H13        11.9462   -5.3402    3.0027 H         1 <0>         0.0515
     38 H14         9.7490   -6.2009    2.2411 H         1 <0>         0.0528
     39 H15         9.6740   -4.4514    2.5601 H         1 <0>         0.0538
     40 H16         8.7926   -6.6509    4.4842 H         1 <0>         0.0590
     41 H17         7.7085   -5.6167    3.5233 H         1 <0>         0.0800
     42 H18        -0.5359    1.8673   -0.7988 H         1 <0>         0.1341
     43 H19        -0.5008    1.8621    0.9933 H         1 <0>         0.0875
     44 O6          7.4270   -3.9378    7.1042 O.co2     1 <0>        -0.7794
@<TRIPOS>BOND
     1    1    6 ar
     2    1    2 ar
     3    1   25 1
     4    2    3 ar
     5    2   26 1
     6    3   24 1
     7    3    4 ar
     8    4    5 ar
     9    4   22 1
    10    5    6 ar
    11    5   27 1
    12    6    7 1
    13    7    8 2
    14    7    9 am
    15    9   10 1
    16    9   28 1
    17   10   11 am
    18   10   29 1
    19   11   12 2
    20   11   13 1
    21   13   14 1
    22   13   30 1
    23   13   31 1
    24   14   19 1
    25   14   15 1
    26   14   20 1
    27   15   16 1
    28   15   32 1
    29   15   33 1
    30   16   17 1
    31   16   34 1
    32   16   35 1
    33   17   18 1
    34   17   36 1
    35   17   37 1
    36   18   19 1
    37   18   38 1
    38   18   39 1
    39   19   40 1
    40   19   41 1
    41   20   21 2
    42   20   44 1
    43   22   23 1
    44   23   24 1
    45   23   42 1
    46   23   43 1
@<TRIPOS>MOLECULE
ZINC35600768
   26    26     0     0     0
SMALL
USER_CHARGES

@<TRIPOS>ATOM
      1 C1         -0.0187    1.5258    0.0104 C.3       1 <0>        -0.1869
      2 C2          0.0021   -0.0041    0.0020 C.3       1 <0>         0.0944
      3 H1         -1.0205   -0.3814    0.0098 H         1 <0>         0.0635
      4 C3          0.7421   -0.5109    1.2415 C.3       1 <0>         0.1096
      5 N1          0.7619   -1.9757    1.2335 N.pl3     1 <0>        -1.1062
      6 S1          1.7968   -2.7953    2.2334 S.o2      1 <0>         2.7037
      7 O1          1.5617   -4.1796    2.0147 O.2       1 <0>        -0.9560
      8 O2          3.0779   -2.2041    2.0646 O.2       1 <0>        -0.9469
      9 C4          1.2996   -2.4555    3.8893 C.2       1 <0>        -0.6747
     10 C5          0.8265   -3.4610    4.6933 C.2       1 <0>        -0.0765
     11 C6          0.4629   -3.0834    5.9808 C.2       1 <0>        -0.1689
     12 S2          0.8153   -1.3360    5.9633 S.3       1 <0>         0.3161
     13 C7          1.3849   -1.1947    4.3892 C.2       1 <0>        -0.2072
     14 Br1         2.0013    0.3633    3.5124 Br        1 <0>         0.0415
     15 C8         -0.0530   -3.8797    7.0325 C.2       1 <0>         0.5476
     16 O3         -0.2325   -5.0795    6.8612 O.co2     1 <0>        -0.6581
     17 O4         -0.3198   -3.3687    8.1136 O.co2     1 <0>        -0.6743
     18 O5          0.6709   -0.4649   -1.1737 O.3       1 <0>        -0.5594
     19 H2          1.0039    1.9031    0.0027 H         1 <0>         0.0665
     20 H3         -0.5459    1.8868   -0.8726 H         1 <0>         0.0634
     21 H4         -0.5289    1.8773    0.9072 H         1 <0>         0.0709
     22 H5          1.7647   -0.1336    1.2338 H         1 <0>         0.0932
     23 H6          0.2319   -0.1594    2.1383 H         1 <0>         0.0833
     24 H7          0.1689   -2.4656    0.6425 H         1 <0>         0.4195
     25 H8          0.7416   -4.4808    4.3481 H         1 <0>         0.1656
     26 H9          0.2557   -0.1806   -1.9994 H         1 <0>         0.3762
@<TRIPOS>BOND
     1    1    2 1
     2    1   19 1
     3    1   20 1
     4    1   21 1
     5    2    3 1
     6    2    4 1
     7    2   18 1
     8    4    5 1
     9    4   22 1
    10    4   23 1
    11    5    6 1
    12    5   24 1
    13    6    7 2
    14    6    8 2
    15    6    9 1
    16    9   13 2
    17    9   10 1
    18   10   11 2
    19   10   25 1
    20   11   12 1
    21   11   15 1
    22   12   13 1
    23   13   14 1
    24   15   16 2
    25   15   17 1
    26   18   26 1
@<TRIPOS>MOLECULE
ZINC49042894
   35    35     0     0     0
SMALL
USER_CHARGES

@<TRIPOS>ATOM
      1 C1         -0.0230    1.5397    0.0466 C.3       1 <0>        -0.1570
      2 C2         -0.0192    0.0098    0.0276 C.3       1 <0>         0.1452
      3 C3          0.6533   -0.4826   -1.2555 C.3       1 <0>        -0.1594
      4 N1          0.7195   -0.4912    1.1893 N.pl3     1 <0>        -0.9894
      5 C4          2.1293   -0.1360    1.3698 C.3       1 <0>         0.1065
      6 S1         -0.0391   -1.4590    2.2984 S.o2      1 <0>         2.7135
      7 O1          0.6802   -1.3221    3.5162 O.2       1 <0>        -1.0404
      8 O2         -1.4286   -1.1790    2.1988 O.2       1 <0>        -1.0445
      9 N2          0.1648   -3.0256    1.8019 N.2       1 <0>        -1.0888
     10 C5         -0.2967   -4.0769    2.5987 C.ar      1 <0>         0.2761
     11 C6         -1.0480   -3.8103    3.7359 C.ar      1 <0>        -0.1569
     12 C7         -1.5031   -4.8515    4.5211 C.ar      1 <0>        -0.6094
     13 C8         -1.2113   -6.1587    4.1766 C.ar      1 <0>        -0.1219
     14 C9         -0.4637   -6.4285    3.0452 C.ar      1 <0>        -0.0876
     15 C10        -0.0099   -5.3918    2.2517 C.ar      1 <0>        -0.0457
     16 Cl1         0.9232   -5.7313    0.8277 Cl        1 <0>        -0.0751
     17 S2         -2.4563   -4.5138    5.9640 S.o2      1 <0>         2.6939
     18 O3         -2.2997   -5.6331    6.8254 O.2       1 <0>        -0.9739
     19 O4         -2.1289   -3.1909    6.3666 O.2       1 <0>        -0.9665
     20 N3         -4.0472   -4.4888    5.5051 N.pl3     1 <0>        -1.2509
     21 H1          1.0030    1.9060    0.0105 H         1 <0>         0.0553
     22 H2         -0.5726    1.9124   -0.8177 H         1 <0>         0.0606
     23 H3         -0.5020    1.8905    0.9607 H         1 <0>         0.0556
     24 H4         -1.0451   -0.3566    0.0638 H         1 <0>         0.0948
     25 H5          1.6792   -0.1162   -1.2917 H         1 <0>         0.0544
     26 H6          0.6560   -1.5725   -1.2691 H         1 <0>         0.0666
     27 H7          0.1037   -0.1098   -2.1198 H         1 <0>         0.0575
     28 H8          2.2008    0.7839    1.9501 H         1 <0>         0.0428
     29 H9          2.6417   -0.9398    1.8984 H         1 <0>         0.0673
     30 H10         2.5943    0.0122    0.3952 H         1 <0>         0.0621
     31 H11        -1.2759   -2.7899    4.0063 H         1 <0>         0.1223
     32 H12        -1.5680   -6.9707    4.7929 H         1 <0>         0.1329
     33 H13        -0.2373   -7.4505    2.7792 H         1 <0>         0.1270
     34 H14        -4.2873   -4.6461    4.5785 H         1 <0>         0.4178
     35 H15        -4.7391   -4.3168    6.1628 H         1 <0>         0.4151
@<TRIPOS>BOND
     1    1    2 1
     2    1   21 1
     3    1   22 1
     4    1   23 1
     5    2    3 1
     6    2    4 1
     7    2   24 1
     8    3   25 1
     9    3   26 1
    10    3   27 1
    11    4    5 1
    12    4    6 1
    13    5   28 1
    14    5   29 1
    15    5   30 1
    16    6    7 2
    17    6    8 2
    18    6    9 1
    19    9   10 1
    20   10   15 ar
    21   10   11 ar
    22   11   12 ar
    23   11   31 1
    24   12   13 ar
    25   12   17 1
    26   13   14 ar
    27   13   32 1
    28   14   15 ar
    29   14   33 1
    30   15   16 1
    31   17   18 2
    32   17   19 2
    33   17   20 1
    34   20   34 1
    35   20   35 1
@<TRIPOS>MOLECULE
ZINC56918365
   47    47     0     0     0
SMALL
USER_CHARGES

@<TRIPOS>ATOM
      1 C1         -0.0187    1.5258    0.0104 C.3       1 <0>        -0.1532
      2 C2          0.0021   -0.0041    0.0020 C.3       1 <0>         0.2065
      3 H1          0.5123   -0.3556   -0.8948 H         1 <0>         0.0911
      4 C3          0.7309   -0.5033    1.2229 C.ar      1 <0>        -0.0602
      5 C4          0.0797   -0.5582    2.4418 C.ar      1 <0>        -0.2224
      6 C5          0.7449   -1.0151    3.5646 C.ar      1 <0>        -0.0669
      7 C6          2.0625   -1.4189    3.4721 C.ar      1 <0>        -0.2555
      8 C7          2.7194   -1.3655    2.2494 C.ar      1 <0>         0.2861
      9 C8          2.0465   -0.9107    1.1222 C.ar      1 <0>        -0.1710
     10 N1          4.0518   -1.7729    2.1523 N.2       1 <0>        -1.0989
     11 S1          4.8502   -2.3205    3.4958 S.o2      1 <0>         2.5255
     12 O1          4.8990   -1.2013    4.3700 O.2       1 <0>        -1.0313
     13 O2          4.1586   -3.5036    3.8716 O.2       1 <0>        -1.0316
     14 C9          6.5181   -2.7305    2.9121 C.3       1 <0>        -0.6372
     15 N2         -1.3723   -0.5112    0.0124 N.am      1 <0>        -0.7330
     16 C10        -2.0508   -0.6427   -1.1446 C.2       1 <0>         0.7032
     17 O3         -1.5223   -0.3406   -2.1971 O.2       1 <0>        -0.5941
     18 N3         -3.3153   -1.1092   -1.1351 N.am      1 <0>        -0.7524
     19 C11        -4.0528   -1.2522   -2.3928 C.3       1 <0>         0.1409
     20 C12        -5.4529   -1.7973   -2.1038 C.3       1 <0>        -0.1285
     21 C13        -6.2232   -1.9466   -3.4173 C.3       1 <0>        -0.1159
     22 C14        -7.6233   -2.4916   -3.1283 C.3       1 <0>         0.0610
     23 O4         -8.3427   -2.6311   -4.3551 O.3       1 <0>        -0.3935
     24 C15        -9.6701   -3.1361   -4.1964 C.3       1 <0>         0.0316
     25 H2          1.0039    1.9031    0.0027 H         1 <0>         0.0678
     26 H3         -0.5459    1.8868   -0.8726 H         1 <0>         0.0554
     27 H4         -0.5289    1.8773    0.9072 H         1 <0>         0.0551
     28 H5         -0.9506   -0.2431    2.5169 H         1 <0>         0.0967
     29 H6          0.2336   -1.0561    4.5150 H         1 <0>         0.1001
     30 H7          2.5816   -1.7754    4.3495 H         1 <0>         0.1003
     31 H8          2.5530   -0.8717    0.1692 H         1 <0>         0.1121
     32 H9          6.9883   -1.8379    2.4995 H         1 <0>         0.1150
     33 H10         7.1136   -3.1025    3.7459 H         1 <0>         0.1005
     34 H11         6.4546   -3.4976    2.1403 H         1 <0>         0.1149
     35 H12        -1.7940   -0.7522    0.8520 H         1 <0>         0.3961
     36 H13        -3.7369   -1.3503   -0.2954 H         1 <0>         0.3946
     37 H14        -4.1345   -0.2799   -2.8786 H         1 <0>         0.0656
     38 H15        -3.5223   -1.9427   -3.0485 H         1 <0>         0.0663
     39 H16        -5.3712   -2.7696   -1.6179 H         1 <0>         0.0716
     40 H17        -5.9834   -1.1068   -1.4480 H         1 <0>         0.0707
     41 H18        -6.3049   -0.9743   -3.9032 H         1 <0>         0.0751
     42 H19        -5.6927   -2.6370   -4.0731 H         1 <0>         0.0757
     43 H20        -7.5416   -3.4639   -2.6425 H         1 <0>         0.0497
     44 H21        -8.1538   -1.8012   -2.4726 H         1 <0>         0.0492
     45 H22        -9.6308   -4.1217   -3.7327 H         1 <0>         0.0410
     46 H23       -10.2430   -2.4590   -3.5627 H         1 <0>         0.0407
     47 H24       -10.1489   -3.2126   -5.1726 H         1 <0>         0.0855
@<TRIPOS>BOND
     1    1    2 1
     2    1   25 1
     3    1   26 1
     4    1   27 1
     5    2    3 1
     6    2    4 1
     7    2   15 1
     8    4    9 ar
     9    4    5 ar
    10    5    6 ar
    11    5   28 1
    12    6    7 ar
    13    6   29 1
    14    7    8 ar
    15    7   30 1
    16    8    9 ar
    17    8   10 1
    18    9   31 1
    19   10   11 1
    20   11   12 2
    21   11   13 2
    22   11   14 1
    23   14   32 1
    24   14   33 1
    25   14   34 1
    26   15   16 am
    27   15   35 1
    28   16   17 2
    29   16   18 am
    30   18   19 1
    31   18   36 1
    32   19   20 1
    33   19   37 1
    34   19   38 1
    35   20   21 1
    36   20   39 1
    37   20   40 1
    38   21   22 1
    39   21   41 1
    40   21   42 1
    41   22   23 1
    42   22   43 1
    43   22   44 1
    44   23   24 1
    45   24   45 1
    46   24   46 1
    47   24   47 1
@<TRIPOS>MOLECULE
ZINC66508332
   40    41     0     0     0
SMALL
USER_CHARGES

@<TRIPOS>ATOM
      1 C1         -2.3568   -1.1763    1.0659 C.3       1 <0>        -0.1657
      2 C2         -1.7437   -2.5781    1.0534 C.3       1 <0>         0.1074
      3 N1         -0.7056   -2.6663    2.0833 N.am      1 <0>        -0.5590
      4 C3          0.5673   -2.3418    1.7698 C.2       1 <0>         0.5685
      5 O1          0.8596   -1.9790    0.6469 O.2       1 <0>        -0.5036
      6 C4          1.5942   -2.4386    2.8252 C.ar      1 <0>        -0.2057
      7 C5          2.9281   -2.1200    2.5765 C.ar      1 <0>        -0.0228
      8 C6          3.8504   -2.2215    3.5796 C.ar      1 <0>        -0.1239
      9 C7          3.4635   -2.6442    4.8577 C.ar      1 <0>         0.0365
     10 C8          2.1303   -2.9665    5.1185 C.ar      1 <0>        -0.1047
     11 C9          1.1932   -2.8641    4.1041 C.ar      1 <0>         0.1884
     12 N2         -0.1432   -3.1729    4.3172 N.am      1 <0>        -0.6407
     13 H1         -0.4340   -3.4677    5.1943 H         1 <0>         0.4320
     14 C10        -1.0392   -3.0626    3.3214 C.2       1 <0>         0.7074
     15 O2         -2.2009   -3.3383    3.5509 O.2       1 <0>        -0.5580
     16 C11         4.4682   -2.7497    5.9317 C.2       1 <0>         0.3814
     17 O3          5.5344   -3.5620    5.7804 O.3       1 <0>        -0.6290
     18 C12         4.3169   -2.0139    7.0974 C.2       1 <0>        -0.4118
     19 C13         5.1969   -2.2378    8.2047 C.1       1 <0>         0.3171
     20 N3          5.8950   -2.4154    9.0831 N.1       1 <0>        -0.5308
     21 C14         3.2545   -1.0054    7.1963 C.2       1 <0>         0.5930
     22 O4          2.5817   -0.7327    6.2197 O.2       1 <0>        -0.5704
     23 N4          3.0245   -0.3816    8.3686 N.am      1 <0>        -0.7435
     24 C15         1.9644    0.6247    8.4673 C.3       1 <0>         0.1527
     25 C16         1.9145    1.1656    9.8730 C.2       1 <0>        -0.1672
     26 C17         2.0087    2.4554   10.0823 C.2       1 <0>        -0.1782
     27 H2         -1.5805   -0.4384    0.8635 H         1 <0>         0.0608
     28 H3         -3.1292   -1.1107    0.2996 H         1 <0>         0.0736
     29 H4         -2.7975   -0.9812    2.0436 H         1 <0>         0.0611
     30 H5         -2.5200   -3.3160    1.2558 H         1 <0>         0.0973
     31 H6         -1.3031   -2.7732    0.0757 H         1 <0>         0.0965
     32 H7          3.2322   -1.7938    1.5929 H         1 <0>         0.1384
     33 H8          4.8838   -1.9748    3.3857 H         1 <0>         0.1336
     34 H9          1.8322   -3.2931    6.1038 H         1 <0>         0.1332
     35 H10         3.5608   -0.5990    9.1471 H         1 <0>         0.3940
     36 H11         2.1702    1.4385    7.7719 H         1 <0>         0.0644
     37 H12         1.0061    0.1685    8.2193 H         1 <0>         0.0688
     38 H13         1.8010    0.4900   10.7078 H         1 <0>         0.1118
     39 H14         2.1223    3.1310    9.2474 H         1 <0>         0.0987
     40 H15         1.9730    2.8430   11.0897 H         1 <0>         0.0986
@<TRIPOS>BOND
     1    1    2 1
     2    1   27 1
     3    1   28 1
     4    1   29 1
     5    2    3 1
     6    2   30 1
     7    2   31 1
     8    3   14 am
     9    3    4 am
    10    4    5 2
    11    4    6 1
    12    6   11 ar
    13    6    7 ar
    14    7    8 ar
    15    7   32 1
    16    8    9 ar
    17    8   33 1
    18    9   10 ar
    19    9   16 1
    20   10   11 ar
    21   10   34 1
    22   11   12 1
    23   12   13 1
    24   12   14 am
    25   14   15 2
    26   16   17 1
    27   16   18 2
    28   18   19 1
    29   18   21 1
    30   19   20 3
    31   21   22 2
    32   21   23 am
    33   23   24 1
    34   23   35 1
    35   24   25 1
    36   24   36 1
    37   24   37 1
    38   25   26 2
    39   25   38 1
    40   26   39 1
    41   26   40 1
@<TRIPOS>MOLECULE
ZINC09329143
   41    44     0     0     0
SMALL
USER_CHARGES
4-[(E)-[3-(5-phenyl-1H-pyrazol-3-yl)-5-thioxo-1H-1,2,4-triazol-4-yl]iminomethyl]benzoic acid
@<TRIPOS>ATOM
      1 C1         -7.6179    6.7265    8.8904 C.ar      1 <0>        -0.1080
      2 C2         -6.4408    6.0685    8.5817 C.ar      1 <0>        -0.1139
      3 C3         -6.0824    5.8713    7.2640 C.ar      1 <0>        -0.1062
      4 C4         -6.9097    6.3372    6.2420 C.ar      1 <0>        -0.0363
      5 C5         -8.0923    7.0054    6.5598 C.ar      1 <0>        -0.0882
      6 C6         -8.4426    7.1909    7.8815 C.ar      1 <0>        -0.1154
      7 C7         -6.5313    6.1290    4.8265 C.2       1 <0>         0.1344
      8 C8         -7.2405    6.5354    3.7350 C.2       1 <0>        -0.2033
      9 C9         -6.5306    6.1355    2.5885 C.2       1 <0>         0.1167
     10 N1         -5.4320    5.5193    2.9769 N.2       1 <0>        -0.2197
     11 N2         -5.4070    5.5010    4.3771 N.pl3     1 <0>        -0.4486
     12 H1         -4.6908    5.0983    4.9471 H         1 <0>         0.4555
     13 C10        -6.9430    6.3716    1.1869 C.2       1 <0>         0.3641
     14 N3         -8.0302    6.9819    0.8053 N.2       1 <0>        -0.2512
     15 N4         -8.0500    6.9981   -0.5960 N.pl3     1 <0>        -0.4680
     16 H2         -8.7407    7.3870   -1.1551 H         1 <0>         0.4713
     17 C11        -6.9314    6.3790   -1.0255 C.2       1 <0>         0.4695
     18 S1         -6.4734    6.1372   -2.6573 S.2       1 <0>        -0.5576
     19 N5         -6.2405    5.9823    0.0618 N.pl3     1 <0>        -0.3526
     20 N6         -5.0179    5.2983    0.0532 N.2       1 <0>        -0.2400
     21 C12        -5.0002    3.9997    0.0461 C.2       1 <0>         0.2361
     22 C13        -3.7147    3.2806    0.0370 C.ar      1 <0>        -0.1003
     23 C14        -3.6956    1.8819    0.0294 C.ar      1 <0>        -0.0821
     24 C15        -2.5033    1.2154    0.0205 C.ar      1 <0>        -0.1003
     25 C16        -1.3021    1.9311    0.0187 C.ar      1 <0>        -0.0691
     26 C17        -1.3209    3.3292    0.0322 C.ar      1 <0>        -0.0928
     27 C18        -2.5128    3.9963    0.0357 C.ar      1 <0>        -0.0652
     28 C19        -0.0144    1.2108    0.0087 C.2       1 <0>         0.4835
     29 O1          0.0021   -0.0041    0.0020 O.co2     1 <0>        -0.6253
     30 H3         -7.8944    6.8778    9.9234 H         1 <0>         0.1269
     31 H4         -5.8011    5.7083    9.3739 H         1 <0>         0.1292
     32 H5         -5.1635    5.3569    7.0242 H         1 <0>         0.1219
     33 H6         -8.7345    7.3726    5.7730 H         1 <0>         0.1327
     34 H7         -9.3603    7.7038    8.1288 H         1 <0>         0.1302
     35 H8         -8.1802    7.0675    3.7484 H         1 <0>         0.1650
     36 H9         -5.9281    3.4471    0.0468 H         1 <0>         0.1235
     37 H10        -4.6233    1.3291    0.0307 H         1 <0>         0.1245
     38 H11        -2.4885    0.1355    0.0146 H         1 <0>         0.1357
     39 H12        -0.3929    3.8816    0.0352 H         1 <0>         0.1384
     40 H13        -2.5272    5.0762    0.0420 H         1 <0>         0.1312
     41 O2          1.1433    1.9003    0.0013 O.co2     1 <0>        -0.7461
@<TRIPOS>BOND
     1    1    6 ar
     2    1    2 ar
     3    1   30 1
     4    2    3 ar
     5    2   31 1
     6    3    4 ar
     7    3   32 1
     8    4    5 ar
     9    4    7 1
    10    5    6 ar
    11    5   33 1
    12    6   34 1
    13    7   11 1
    14    7    8 2
    15    8    9 1
    16    8   35 1
    17    9   10 2
    18    9   13 1
    19   10   11 1
    20   11   12 1
    21   13   19 1
    22   13   14 2
    23   14   15 1
    24   15   16 1
    25   15   17 1
    26   17   18 2
    27   17   19 1
    28   19   20 1
    29   20   21 2
    30   21   22 1
    31   21   36 1
    32   22   27 ar
    33   22   23 ar
    34   23   24 ar
    35   23   37 1
    36   24   25 ar
    37   24   38 1
    38   25   26 ar
    39   25   28 1
    40   26   27 ar
    41   26   39 1
    42   27   40 1
    43   28   29 2
    44   28   41 1
@<TRIPOS>MOLECULE
ZINC42791683
   45    46     0     0     0
SMALL
USER_CHARGES

@<TRIPOS>ATOM
      1 C1         -0.6896    1.8358   -0.5004 C.3       1 <0>        -0.1078
      2 C2         -0.8159    0.4027   -0.9491 C.ar      1 <0>        -0.1203
      3 C3         -1.0873    0.1154   -2.2731 C.ar      1 <0>        -0.0801
      4 C4         -1.2034   -1.1969   -2.6885 C.ar      1 <0>        -0.1302
      5 C5         -1.0478   -2.2327   -1.7755 C.ar      1 <0>         0.1740
      6 C6         -0.7752   -1.9480   -0.4455 C.ar      1 <0>        -0.1928
      7 C7         -0.6535   -0.6285   -0.0322 C.ar      1 <0>         0.1781
      8 N1         -0.3738   -0.3376    1.3050 N.pl3     1 <0>        -1.0540
      9 S1          0.6227   -1.3315    2.1777 S.o2      1 <0>         2.6931
     10 O1          0.8165   -0.7064    3.4389 O.2       1 <0>        -0.9552
     11 O2          0.0971   -2.6457    2.0516 O.2       1 <0>        -0.9543
     12 C8          2.1896   -1.3363    1.3718 C.ar      1 <0>        -0.6874
     13 C9          2.6632   -2.4965    0.7953 C.ar      1 <0>         0.0128
     14 C10         3.9056   -2.4982    0.1564 C.ar      1 <0>        -0.1421
     15 C11         4.6596   -1.3228    0.1063 C.ar      1 <0>         0.0005
     16 C12         4.1734   -0.1705    0.6871 C.ar      1 <0>        -0.1525
     17 C13         2.9393   -0.1749    1.3138 C.ar      1 <0>         0.0027
     18 C14         2.4121    1.0901    1.9406 C.3       1 <0>        -0.1298
     19 C15         6.0012   -1.3147   -0.5801 C.3       1 <0>        -0.1124
     20 C16         4.4192   -3.7353   -0.4622 C.2       1 <0>         0.5261
     21 O3          4.8522   -3.7130   -1.6057 O.co2     1 <0>        -0.6760
     22 O4          4.4120   -4.7829    0.1686 O.co2     1 <0>        -0.6822
     23 N2         -1.1664   -3.5616   -2.1971 N.am      1 <0>        -0.6736
     24 C17        -0.7445   -3.9189   -3.4262 C.2       1 <0>         0.5114
     25 O5         -0.1759   -3.1117   -4.1306 O.2       1 <0>        -0.5218
     26 C18        -0.9792   -5.3213   -3.9254 C.3       1 <0>        -0.1693
     27 H1          0.3474    2.1570   -0.5978 H         1 <0>         0.0724
     28 H2         -1.3255    2.4680   -1.1201 H         1 <0>         0.0680
     29 H3         -0.9994    1.9190    0.5413 H         1 <0>         0.0605
     30 H4         -1.2094    0.9186   -2.9847 H         1 <0>         0.1293
     31 H5         -1.4156   -1.4181   -3.7241 H         1 <0>         0.1342
     32 H6         -0.6538   -2.7514    0.2661 H         1 <0>         0.1646
     33 H7         -0.7632    0.4466    1.7224 H         1 <0>         0.4228
     34 H8          2.0752   -3.4014    0.8380 H         1 <0>         0.1376
     35 H9          4.7551    0.7387    0.6492 H         1 <0>         0.1253
     36 H10         2.7866    1.1735    2.9608 H         1 <0>         0.0892
     37 H11         2.7458    1.9499    1.3597 H         1 <0>         0.0782
     38 H12         1.3226    1.0618    1.9547 H         1 <0>         0.0553
     39 H13         5.8757   -1.0109   -1.6194 H         1 <0>         0.0779
     40 H14         6.6641   -0.6129   -0.0740 H         1 <0>         0.0563
     41 H15         6.4341   -2.3144   -0.5436 H         1 <0>         0.0808
     42 H16        -1.5524   -4.2258   -1.6047 H         1 <0>         0.4134
     43 H17        -1.4996   -5.8970   -3.1600 H         1 <0>         0.0785
     44 H18        -1.5857   -5.2881   -4.8304 H         1 <0>         0.0970
     45 H19        -0.0218   -5.7932   -4.1467 H         1 <0>         0.1017
@<TRIPOS>BOND
     1    1    2 1
     2    1   27 1
     3    1   28 1
     4    1   29 1
     5    2    7 ar
     6    2    3 ar
     7    3    4 ar
     8    3   30 1
     9    4    5 ar
    10    4   31 1
    11    5    6 ar
    12    5   23 1
    13    6    7 ar
    14    6   32 1
    15    7    8 1
    16    8    9 1
    17    8   33 1
    18    9   10 2
    19    9   11 2
    20    9   12 1
    21   12   17 ar
    22   12   13 ar
    23   13   14 ar
    24   13   34 1
    25   14   15 ar
    26   14   20 1
    27   15   16 ar
    28   15   19 1
    29   16   17 ar
    30   16   35 1
    31   17   18 1
    32   18   36 1
    33   18   37 1
    34   18   38 1
    35   19   39 1
    36   19   40 1
    37   19   41 1
    38   20   21 2
    39   20   22 1
    40   23   24 am
    41   23   42 1
    42   24   25 2
    43   24   26 1
    44   26   43 1
    45   26   44 1
    46   26   45 1
@<TRIPOS>MOLECULE
ZINC28667975
   38    39     0     0     0
SMALL
USER_CHARGES

@<TRIPOS>ATOM
      1 C1         -0.0225    1.8097    0.0120 C.3       1 <0>        -0.1423
      2 S1          0.0021   -0.0041    0.0020 S.3       1 <0>        -0.1792
      3 C2         -1.7518   -0.4668    0.0163 C.3       1 <0>        -0.1193
      4 C3         -1.8752   -1.9688    0.0094 C.2       1 <0>         0.5247
      5 O1         -0.8780   -2.6590   -0.0038 O.2       1 <0>        -0.5274
      6 N1         -3.0935   -2.5449    0.0179 N.am      1 <0>        -0.5102
      7 N2         -3.2082   -3.9412    0.0115 N.am      1 <0>        -0.5429
      8 C4         -4.4266   -4.5174    0.0201 C.2       1 <0>         0.5688
      9 O2         -5.4263   -3.8253    0.0333 O.2       1 <0>        -0.4982
     10 C5         -4.5472   -5.9867    0.0133 C.ar      1 <0>        -0.2144
     11 C6         -3.4012   -6.7862    0.0039 C.ar      1 <0>        -0.0379
     12 C7         -3.5207   -8.1585   -0.0024 C.ar      1 <0>        -0.2327
     13 C8         -4.7730   -8.7525    0.0001 C.ar      1 <0>        -0.0366
     14 C9         -5.9140   -7.9772    0.0089 C.ar      1 <0>        -0.2662
     15 C10        -5.8138   -6.5913    0.0222 C.ar      1 <0>         0.3333
     16 N3         -6.9608   -5.8085    0.0378 N.2       1 <0>        -1.0298
     17 S2         -8.4530   -6.5264    0.0482 S.o2      1 <0>         2.6245
     18 O3         -8.5924   -7.1917   -1.1997 O.2       1 <0>        -1.0194
     19 O4         -8.5681   -7.2060    1.2909 O.2       1 <0>        -1.0197
     20 C11        -9.6521   -5.2355    0.0673 C.2       1 <0>        -0.6645
     21 C12       -10.2473   -4.6078   -0.9762 C.2       1 <0>        -0.0433
     22 C13       -11.1709   -3.6116   -0.7209 C.2       1 <0>        -0.1799
     23 C14       -11.4541   -3.2918    0.5655 C.2       1 <0>        -0.1695
     24 S3        -10.4041   -4.4202    1.4663 S.3       1 <0>         0.1423
     25 H1          1.0001    2.1870    0.0043 H         1 <0>         0.1049
     26 H2         -0.5497    2.1708   -0.8711 H         1 <0>         0.0765
     27 H3         -0.5327    2.1613    0.9088 H         1 <0>         0.0766
     28 H4         -2.2257   -0.0675    0.9130 H         1 <0>         0.1142
     29 H5         -2.2427   -0.0579   -0.8669 H         1 <0>         0.1141
     30 H6         -3.8910   -1.9928    0.0285 H         1 <0>         0.4300
     31 H7         -2.4107   -4.4933    0.0009 H         1 <0>         0.4238
     32 H8         -2.4229   -6.3287    0.0012 H         1 <0>         0.1091
     33 H9         -2.6338   -8.7748   -0.0097 H         1 <0>         0.1103
     34 H10        -4.8561   -9.8293   -0.0053 H         1 <0>         0.1092
     35 H11        -6.8861   -8.4478    0.0101 H         1 <0>         0.1049
     36 H12       -10.0033   -4.8818   -1.9920 H         1 <0>         0.1422
     37 H13       -11.6593   -3.0955   -1.5343 H         1 <0>         0.1359
     38 H14       -12.1400   -2.5497    0.9466 H         1 <0>         0.1880
@<TRIPOS>BOND
     1    1    2 1
     2    1   25 1
     3    1   26 1
     4    1   27 1
     5    2    3 1
     6    3    4 1
     7    3   28 1
     8    3   29 1
     9    4    5 2
    10    4    6 am
    11    6    7 1
    12    6   30 1
    13    7    8 am
    14    7   31 1
    15    8    9 2
    16    8   10 1
    17   10   15 ar
    18   10   11 ar
    19   11   12 ar
    20   11   32 1
    21   12   13 ar
    22   12   33 1
    23   13   14 ar
    24   13   34 1
    25   14   15 ar
    26   14   35 1
    27   15   16 1
    28   16   17 1
    29   17   18 2
    30   17   19 2
    31   17   20 1
    32   20   24 1
    33   20   21 2
    34   21   22 1
    35   21   36 1
    36   22   23 2
    37   22   37 1
    38   23   24 1
    39   23   38 1
@<TRIPOS>MOLECULE
ZINC62930525
   34    35     0     0     0
SMALL
USER_CHARGES

@<TRIPOS>ATOM
      1 C1         -0.0187    1.5258    0.0104 C.3       1 <0>        -0.1490
      2 C2          0.0021   -0.0041    0.0020 C.3       1 <0>        -0.0420
      3 C3          0.7074   -0.4901   -1.2379 C.2       1 <0>        -0.1301
      4 C4          2.0229   -0.7610   -1.4208 C.2       1 <0>        -0.1850
      5 C5          2.4507   -1.2017   -2.6591 C.2       1 <0>        -0.0334
      6 C6          1.5420   -1.3499   -3.6540 C.2       1 <0>        -0.6787
      7 S1          0.0261   -0.8658   -2.8447 S.3       1 <0>         0.1436
      8 S2          1.7913   -1.8871   -5.3134 S.o2      1 <0>         2.6371
      9 O1          0.7170   -1.3571   -6.0777 O.2       1 <0>        -1.0181
     10 O2          3.1520   -1.6223   -5.6260 O.2       1 <0>        -1.0169
     11 N1          1.6144   -3.5336   -5.3268 N.2       1 <0>        -1.0796
     12 C7          1.7591   -4.2422   -6.5226 C.ar      1 <0>         0.2703
     13 C8          2.0568   -3.5673   -7.6997 C.ar      1 <0>        -0.2104
     14 C9          2.1996   -4.2701   -8.8798 C.ar      1 <0>        -0.0617
     15 C10         2.0464   -5.6456   -8.8905 C.ar      1 <0>        -0.0568
     16 C11         1.7498   -6.3203   -7.7195 C.ar      1 <0>        -0.6193
     17 C12         1.6110   -5.6230   -6.5353 C.ar      1 <0>        -0.0658
     18 S3          1.5555   -8.0715   -7.7378 S.o2      1 <0>         2.7008
     19 O3          2.6772   -8.5973   -8.4340 O.2       1 <0>        -0.9589
     20 O4          1.2339   -8.4583   -6.4088 O.2       1 <0>        -0.9676
     21 N2          0.2241   -8.4068   -8.6636 N.pl3     1 <0>        -1.2459
     22 Cl1         2.2260   -6.5258  -10.3759 Cl        1 <0>        -0.0824
     23 H1          1.0039    1.9031    0.0027 H         1 <0>         0.0592
     24 H2         -0.5459    1.8868   -0.8726 H         1 <0>         0.0593
     25 H3         -0.5289    1.8773    0.9072 H         1 <0>         0.0639
     26 H4          0.5293   -0.3651    0.8851 H         1 <0>         0.0872
     27 H5         -1.0205   -0.3814    0.0098 H         1 <0>         0.0814
     28 H6          2.7264   -0.6342   -0.6112 H         1 <0>         0.1358
     29 H7          3.4933   -1.4243   -2.8315 H         1 <0>         0.1430
     30 H8          2.1762   -2.4940   -7.6920 H         1 <0>         0.1140
     31 H9          2.4308   -3.7459   -9.7953 H         1 <0>         0.1254
     32 H10         1.3839   -6.1507   -5.6207 H         1 <0>         0.1472
     33 H11         0.1746   -9.2397   -9.1583 H         1 <0>         0.4165
     34 H12        -0.5063   -7.7703   -8.7113 H         1 <0>         0.4172
@<TRIPOS>BOND
     1    1    2 1
     2    1   23 1
     3    1   24 1
     4    1   25 1
     5    2    3 1
     6    2   26 1
     7    2   27 1
     8    3    7 1
     9    3    4 2
    10    4    5 1
    11    4   28 1
    12    5    6 2
    13    5   29 1
    14    6    7 1
    15    6    8 1
    16    8    9 2
    17    8   10 2
    18    8   11 1
    19   11   12 1
    20   12   17 ar
    21   12   13 ar
    22   13   14 ar
    23   13   30 1
    24   14   15 ar
    25   14   31 1
    26   15   16 ar
    27   15   22 1
    28   16   17 ar
    29   16   18 1
    30   17   32 1
    31   18   19 2
    32   18   20 2
    33   18   21 1
    34   21   33 1
    35   21   34 1
@<TRIPOS>MOLECULE
ZINC66585739
   37    39     0     0     0
SMALL
USER_CHARGES

@<TRIPOS>ATOM
      1 C1         -0.0163    1.3494    0.0095 C.2       1 <0>        -0.2788
      2 C2          1.3086    1.7981   -0.0008 C.2       1 <0>         0.0232
      3 N1          2.0954    0.7519   -0.0139 N.2       1 <0>        -0.2724
      4 N2          1.2952   -0.3979   -0.0124 N.pl3     1 <0>        -0.2873
      5 C3          0.0021   -0.0041    0.0020 C.2       1 <0>         0.0427
      6 C4          1.7546   -1.7239   -0.0249 C.ar      1 <0>         0.0355
      7 C5          0.8457   -2.7734   -0.0280 C.ar      1 <0>        -0.0765
      8 C6          1.2970   -4.0778   -0.0402 C.ar      1 <0>        -0.1541
      9 C7          2.6612   -4.3411   -0.0498 C.ar      1 <0>         0.2918
     10 C8          3.5709   -3.2918   -0.0471 C.ar      1 <0>        -0.2437
     11 C9          3.1189   -1.9862   -0.0398 C.ar      1 <0>         0.0342
     12 Cl1         4.2553   -0.6739   -0.0426 Cl        1 <0>        -0.0566
     13 N3          3.1180   -5.6622   -0.0617 N.2       1 <0>        -1.0772
     14 S1          4.7440   -5.9760   -0.0731 S.o2      1 <0>         2.5989
     15 O1          5.2401   -5.5034   -1.3180 O.2       1 <0>        -1.0199
     16 O2          5.2542   -5.5209    1.1726 O.2       1 <0>        -1.0189
     17 C10         4.9364   -7.7275   -0.0866 C.ar      1 <0>        -0.5904
     18 C11         5.0128   -8.4211    1.1081 C.ar      1 <0>        -0.0306
     19 C12         5.1635   -9.7924    1.1046 C.ar      1 <0>        -0.0827
     20 C13         5.2389  -10.4800   -0.1077 C.ar      1 <0>        -0.1074
     21 C14         5.1612   -9.7742   -1.3093 C.ar      1 <0>        -0.1117
     22 C15         5.0048   -8.4036   -1.2918 C.ar      1 <0>        -0.0318
     23 C16         5.4009  -11.9495   -0.1189 C.2       1 <0>         0.5651
     24 O3          5.4687  -12.5615    0.9291 O.2       1 <0>        -0.5380
     25 N4          5.4734  -12.6105   -1.2912 N.am      1 <0>        -0.8502
     26 H1         -0.8981    1.9727    0.0252 H         1 <0>         0.1430
     27 H2          1.6274    2.8300    0.0014 H         1 <0>         0.1778
     28 H3         -0.8613   -0.6528    0.0073 H         1 <0>         0.1703
     29 H4         -0.2148   -2.5692   -0.0206 H         1 <0>         0.1251
     30 H5          0.5896   -4.8938   -0.0420 H         1 <0>         0.1318
     31 H6          4.6314   -3.4962   -0.0546 H         1 <0>         0.1178
     32 H7          4.9547   -7.8878    2.0455 H         1 <0>         0.1462
     33 H8          5.2233  -10.3327    2.0379 H         1 <0>         0.1418
     34 H9          5.2190  -10.3003   -2.2507 H         1 <0>         0.1309
     35 H10         4.9402   -7.8567   -2.2208 H         1 <0>         0.1450
     36 H11         5.4193  -12.1221   -2.1275 H         1 <0>         0.4026
     37 H12         5.5797  -13.5747   -1.2986 H         1 <0>         0.4047
@<TRIPOS>BOND
     1    1    5 2
     2    1    2 1
     3    1   26 1
     4    2    3 2
     5    2   27 1
     6    3    4 1
     7    4    5 1
     8    4    6 1
     9    5   28 1
    10    6   11 ar
    11    6    7 ar
    12    7    8 ar
    13    7   29 1
    14    8    9 ar
    15    8   30 1
    16    9   10 ar
    17    9   13 1
    18   10   11 ar
    19   10   31 1
    20   11   12 1
    21   13   14 1
    22   14   15 2
    23   14   16 2
    24   14   17 1
    25   17   22 ar
    26   17   18 ar
    27   18   19 ar
    28   18   32 1
    29   19   20 ar
    30   19   33 1
    31   20   21 ar
    32   20   23 1
    33   21   22 ar
    34   21   34 1
    35   22   35 1
    36   23   24 2
    37   23   25 am
    38   25   36 1
    39   25   37 1
@<TRIPOS>MOLECULE
ZINC13264200
   60    62     0     0     0
SMALL
USER_CHARGES
(2R)-1-[4-[N-(cyclohexylcarbamothioylamino)-C-methyl-carbonimidoyl]phenyl]sulfonylpiperidine-2-carboxylic acid
@<TRIPOS>ATOM
      1 C1         -7.7371    0.2203    2.6170 C.3       1 <0>        -0.1642
      2 C2         -7.4931    1.0540    1.3856 C.2       1 <0>         0.1814
      3 N1         -8.4138    1.8610    0.9555 N.2       1 <0>        -0.2845
      4 N2         -9.6347    1.9571    1.6360 N.pl3     1 <0>        -0.5394
      5 C3        -10.5909    2.7952    1.1893 C.2       1 <0>         0.5961
      6 S1        -12.0828    2.9127    2.0209 S.2       1 <0>        -0.6353
      7 N3        -10.3727    3.5409    0.0880 N.pl3     1 <0>        -0.6581
      8 C4        -11.4122    4.4519   -0.3975 C.3       1 <0>         0.1396
      9 C5        -12.3880    3.6829   -1.2904 C.3       1 <0>        -0.1284
     10 C6        -13.4735    4.6343   -1.7975 C.3       1 <0>        -0.1128
     11 C7        -12.8268    5.7632   -2.6027 C.3       1 <0>        -0.1239
     12 C8        -11.8510    6.5323   -1.7098 C.3       1 <0>        -0.1127
     13 C9        -10.7654    5.5808   -1.2027 C.3       1 <0>        -0.1305
     14 C10        -6.2079    0.9528    0.6693 C.ar      1 <0>        -0.0193
     15 C11        -5.9783    1.7241   -0.4725 C.ar      1 <0>        -0.1028
     16 C12        -4.7741    1.6239   -1.1376 C.ar      1 <0>         0.0286
     17 C13        -3.7949    0.7617   -0.6767 C.ar      1 <0>        -0.6405
     18 C14        -4.0176   -0.0095    0.4504 C.ar      1 <0>        -0.0316
     19 C15        -5.2147    0.0848    1.1291 C.ar      1 <0>        -0.1234
     20 S2         -2.2599    0.6399   -1.5332 S.o2      1 <0>         2.6765
     21 O1         -2.3961    1.4066   -2.7218 O.2       1 <0>        -0.9007
     22 O2         -1.9130   -0.7380   -1.5509 O.2       1 <0>        -0.9782
     23 N4         -1.1199    1.4031   -0.6057 N.pl3     1 <0>        -0.9752
     24 C16        -0.3819    0.6668    0.4296 C.3       1 <0>         0.1184
     25 C17        -0.5203    1.4110    1.7615 C.3       1 <0>        -0.1330
     26 C18        -0.0721    2.8631    1.5785 C.3       1 <0>        -0.1155
     27 C19        -0.9643    3.5507    0.5424 C.3       1 <0>        -0.1167
     28 C20        -0.8275    2.8295   -0.8022 C.3       1 <0>         0.1083
     29 H1          0.1892    2.9458   -1.1775 H         1 <0>         0.0753
     30 C21        -1.8016    3.4130   -1.7931 C.2       1 <0>         0.4679
     31 O3         -2.9715    3.5076   -1.5061 O.co2     1 <0>        -0.6354
     32 H2         -7.4105    0.7709    3.4992 H         1 <0>         0.0960
     33 H3         -8.8010   -0.0018    2.7006 H         1 <0>         0.0737
     34 H4         -7.1763   -0.7114    2.5420 H         1 <0>         0.0980
     35 H5         -9.7917    1.4205    2.4286 H         1 <0>         0.4151
     36 H6         -9.5274    3.4743   -0.3831 H         1 <0>         0.4118
     37 H7        -11.9511    4.8735    0.4510 H         1 <0>         0.1162
     38 H8        -11.8490    3.2613   -2.1389 H         1 <0>         0.0608
     39 H9        -12.8487    2.8786   -0.7167 H         1 <0>         0.0795
     40 H10       -14.0125    5.0559   -0.9490 H         1 <0>         0.0681
     41 H11       -14.1687    4.0864   -2.4336 H         1 <0>         0.0653
     42 H12       -13.6002    6.4410   -2.9639 H         1 <0>         0.0643
     43 H13       -12.2879    5.3416   -3.4512 H         1 <0>         0.0629
     44 H14       -12.3900    6.9538   -0.8613 H         1 <0>         0.0673
     45 H15       -11.3903    7.3365   -2.2835 H         1 <0>         0.0695
     46 H16       -10.0703    6.1287   -0.5666 H         1 <0>         0.0714
     47 H17       -10.2265    5.1592   -2.0512 H         1 <0>         0.0706
     48 H18        -6.7416    2.3975   -0.8334 H         1 <0>         0.1343
     49 H19        -4.5952    2.2196   -2.0205 H         1 <0>         0.1670
     50 H20        -3.2507   -0.6839    0.8018 H         1 <0>         0.1329
     51 H21        -5.3855   -0.5145    2.0112 H         1 <0>         0.1331
     52 H22        -0.7939   -0.3375    0.5276 H         1 <0>         0.0825
     53 H23         0.6708    0.6046    0.1535 H         1 <0>         0.0708
     54 H24        -1.5618    1.3914    2.0826 H         1 <0>         0.0647
     55 H25         0.1022    0.9278    2.5146 H         1 <0>         0.0692
     56 H26         0.9625    2.8813    1.2360 H         1 <0>         0.0606
     57 H27        -0.1487    3.3893    2.5300 H         1 <0>         0.0583
     58 H28        -0.6570    4.5905    0.4305 H         1 <0>         0.0669
     59 H29        -2.0024    3.5115    0.8723 H         1 <0>         0.0712
     60 O4         -1.3696    3.8277   -2.9944 O.co2     1 <0>        -0.7317
@<TRIPOS>BOND
     1    1    2 1
     2    1   32 1
     3    1   33 1
     4    1   34 1
     5    2    3 2
     6    2   14 1
     7    3    4 1
     8    4    5 1
     9    4   35 1
    10    5    6 2
    11    5    7 1
    12    7    8 1
    13    7   36 1
    14    8   13 1
    15    8    9 1
    16    8   37 1
    17    9   10 1
    18    9   38 1
    19    9   39 1
    20   10   11 1
    21   10   40 1
    22   10   41 1
    23   11   12 1
    24   11   42 1
    25   11   43 1
    26   12   13 1
    27   12   44 1
    28   12   45 1
    29   13   46 1
    30   13   47 1
    31   14   19 ar
    32   14   15 ar
    33   15   16 ar
    34   15   48 1
    35   16   17 ar
    36   16   49 1
    37   17   18 ar
    38   17   20 1
    39   18   19 ar
    40   18   50 1
    41   19   51 1
    42   20   21 2
    43   20   22 2
    44   20   23 1
    45   23   28 1
    46   23   24 1
    47   24   25 1
    48   24   52 1
    49   24   53 1
    50   25   26 1
    51   25   54 1
    52   25   55 1
    53   26   27 1
    54   26   56 1
    55   26   57 1
    56   27   28 1
    57   27   58 1
    58   27   59 1
    59   28   29 1
    60   28   30 1
    61   30   31 2
    62   30   60 1
@<TRIPOS>MOLECULE
ZINC22470333
   40    42     0     0     0
SMALL
USER_CHARGES
N-[2-[(2-iodobenzoyl)amino]ethyl]-4-oxo-3H-quinazoline-2-carboxamide
@<TRIPOS>ATOM
      1 C1         -3.6747    2.0615    0.0477 C.ar      1 <0>        -0.1860
      2 C2         -3.6211    3.4490    0.0538 C.ar      1 <0>        -0.0907
      3 C3         -2.4124    4.1082    0.0454 C.ar      1 <0>        -0.1428
      4 C4         -1.2230    3.3733    0.0304 C.ar      1 <0>         0.1909
      5 C5         -1.2826    1.9607    0.0186 C.ar      1 <0>        -0.2509
      6 C6         -2.5154    1.3147    0.0335 C.ar      1 <0>        -0.0403
      7 C7         -0.0144    1.2129    0.0087 C.ar      1 <0>         0.5138
      8 O1          0.0021   -0.0041    0.0020 O.3       1 <0>        -0.5762
      9 N1          1.1325    1.9319    0.0016 N.ar      1 <0>        -0.6430
     10 C8          1.0918    3.3000    0.0089 C.ar      1 <0>         0.3451
     11 N2         -0.0201    3.9802    0.0223 N.ar      1 <0>        -0.6122
     12 C9          2.3750    4.0447    0.0006 C.2       1 <0>         0.5941
     13 O2          3.4283    3.4396   -0.0123 O.2       1 <0>        -0.5223
     14 N3          2.3721    5.3924    0.0074 N.am      1 <0>        -0.7284
     15 C10         3.6392    6.1277   -0.0007 C.3       1 <0>         0.1148
     16 C11         3.3564    7.6313    0.0095 C.3       1 <0>         0.1137
     17 N4          4.6235    8.3666    0.0014 N.am      1 <0>        -0.7287
     18 C12         4.6206    9.7143    0.0082 C.2       1 <0>         0.5436
     19 O3          3.5666   10.3198    0.0211 O.2       1 <0>        -0.5026
     20 C13         5.8989   10.4561   -0.0001 C.ar      1 <0>        -0.1065
     21 C14         7.1113    9.7639   -0.0090 C.ar      1 <0>        -0.0826
     22 C15         8.3006   10.4622   -0.0211 C.ar      1 <0>        -0.1107
     23 C16         8.2946   11.8462   -0.0145 C.ar      1 <0>        -0.0939
     24 C17         7.0976   12.5387   -0.0003 C.ar      1 <0>        -0.0926
     25 C18         5.8996   11.8524    0.0070 C.ar      1 <0>        -0.0647
     26 I1          4.0874   12.9033    0.0292 I         1 <0>         0.0040
     27 H1         -4.6326    1.5628    0.0545 H         1 <0>         0.1111
     28 H2         -4.5389    4.0181    0.0649 H         1 <0>         0.1132
     29 H3         -2.3832    5.1878    0.0506 H         1 <0>         0.1210
     30 H4         -2.5639    0.2358    0.0295 H         1 <0>         0.1185
     31 H5          1.4183    5.9403    0.0190 H         1 <0>         0.4380
     32 H6          4.2249    5.8587    0.8907 H         1 <0>         0.0695
     33 H7          4.2082    5.8678   -0.9055 H         1 <0>         0.0695
     34 H8          2.7707    7.9003   -0.8819 H         1 <0>         0.0782
     35 H9          2.7874    7.8913    0.9143 H         1 <0>         0.0782
     36 H10         5.5773    7.8187   -0.0102 H         1 <0>         0.4190
     37 H11         7.1178    8.6839   -0.0100 H         1 <0>         0.1344
     38 H12         9.2390    9.9276   -0.0318 H         1 <0>         0.1353
     39 H13         9.2289   12.3878   -0.0201 H         1 <0>         0.1345
     40 H14         7.0999   13.6187    0.0055 H         1 <0>         0.1348
@<TRIPOS>BOND
     1    1    6 ar
     2    1    2 ar
     3    1   27 1
     4    2    3 ar
     5    2   28 1
     6    3    4 ar
     7    3   29 1
     8    4   11 ar
     9    4    5 ar
    10    5    6 ar
    11    5    7 ar
    12    6   30 1
    13    7    8 1
    14    7    9 ar
    15    9   10 ar
    16   10   11 ar
    17   10   12 1
    18   12   13 2
    19   12   14 am
    20   14   15 1
    21   14   31 1
    22   15   16 1
    23   15   32 1
    24   15   33 1
    25   16   17 1
    26   16   34 1
    27   16   35 1
    28   17   18 am
    29   17   36 1
    30   18   19 2
    31   18   20 1
    32   20   25 ar
    33   20   21 ar
    34   21   22 ar
    35   21   37 1
    36   22   23 ar
    37   22   38 1
    38   23   24 ar
    39   23   39 1
    40   24   25 ar
    41   24   40 1
    42   25   26 1
@<TRIPOS>MOLECULE
ZINC13549032
   43    46     0     0     0
SMALL
USER_CHARGES

@<TRIPOS>ATOM
      1 C1         -0.0187    1.5258    0.0104 C.3       1 <0>        -0.1377
      2 C2          0.0021   -0.0041    0.0020 C.3       1 <0>        -0.1166
      3 H1          0.5293   -0.3651    0.8851 H         1 <0>         0.1150
      4 C3         -1.4117   -0.5257    0.0127 C.2       1 <0>         0.5379
      5 O1         -1.9274   -0.9011   -1.0188 O.2       1 <0>        -0.5201
      6 N1         -2.1031   -0.5750    1.1686 N.am      1 <0>        -0.7294
      7 C4         -3.4775   -1.0820    1.1790 C.3       1 <0>         0.1253
      8 C5         -4.0291   -1.0312    2.6052 C.3       1 <0>        -0.0553
      9 C6         -5.4429   -1.5528    2.6159 C.2       1 <0>        -0.1673
     10 C7         -6.5647   -0.8205    2.5306 C.2       1 <0>         0.0690
     11 N2         -7.6604   -1.6388    2.5723 N.pl3     1 <0>        -0.5926
     12 H2         -8.5818   -1.3392    2.5268 H         1 <0>         0.4185
     13 C8         -7.2597   -2.9524    2.6885 C.ar      1 <0>         0.0856
     14 C9         -5.8533   -2.9556    2.7149 C.ar      1 <0>        -0.0743
     15 C10        -5.1605   -4.1632    2.8226 C.ar      1 <0>        -0.1045
     16 C11        -5.8624   -5.3469    2.8991 C.ar      1 <0>         0.0725
     17 C12        -7.2520   -5.3422    2.8689 C.ar      1 <0>        -0.1312
     18 C13        -7.9483   -4.1576    2.7714 C.ar      1 <0>        -0.0999
     19 F1         -5.1964   -6.5177    3.0033 F         1 <0>        -0.1411
     20 S1          0.8511   -0.5891   -1.4904 S.3       1 <0>         0.0271
     21 C14         2.5089   -0.0285   -1.2851 C.ar      1 <0>         0.1972
     22 C15         3.4770   -0.2908   -2.2577 C.ar      1 <0>        -0.0601
     23 C16         4.7844    0.1764   -2.0492 C.ar      1 <0>         0.2404
     24 N3          5.5098   -0.2039   -3.1177 N.2       1 <0>        -0.5617
     25 C17         4.7538   -0.8603   -3.9534 C.2       1 <0>         0.2002
     26 N4          3.4928   -0.9427   -3.4728 N.2       1 <0>        -0.5580
     27 N5          5.0525    0.8545   -0.9280 N.ar      1 <0>        -0.4840
     28 C18         4.1083    1.0784   -0.0393 C.ar      1 <0>         0.3300
     29 N6          2.8655    0.6589   -0.2025 N.ar      1 <0>        -0.5404
     30 Cl1         4.5088    1.9633    1.3995 Cl        1 <0>        -0.0205
     31 H3          1.0039    1.9031    0.0027 H         1 <0>         0.0913
     32 H4         -0.5459    1.8868   -0.8726 H         1 <0>         0.0637
     33 H5         -0.5289    1.8773    0.9072 H         1 <0>         0.0598
     34 H6         -1.6907   -0.2747    1.9936 H         1 <0>         0.4020
     35 H7         -4.0971   -0.4657    0.5276 H         1 <0>         0.0681
     36 H8         -3.4875   -2.1119    0.8220 H         1 <0>         0.0692
     37 H9         -3.4095   -1.6475    3.2566 H         1 <0>         0.0791
     38 H10        -4.0191   -0.0013    2.9621 H         1 <0>         0.0794
     39 H11        -6.5975    0.2554    2.4425 H         1 <0>         0.1747
     40 H12        -4.0808   -4.1696    2.8455 H         1 <0>         0.1363
     41 H13        -7.7913   -6.2760    2.9288 H         1 <0>         0.1380
     42 H14        -9.0280   -4.1658    2.7477 H         1 <0>         0.1300
     43 H15         5.0864   -1.2767   -4.8928 H         1 <0>         0.1843
@<TRIPOS>BOND
     1    1    2 1
     2    1   31 1
     3    1   32 1
     4    1   33 1
     5    2    3 1
     6    2    4 1
     7    2   20 1
     8    4    5 2
     9    4    6 am
    10    6    7 1
    11    6   34 1
    12    7    8 1
    13    7   35 1
    14    7   36 1
    15    8    9 1
    16    8   37 1
    17    8   38 1
    18    9   14 1
    19    9   10 2
    20   10   11 1
    21   10   39 1
    22   11   12 1
    23   11   13 1
    24   13   18 ar
    25   13   14 ar
    26   14   15 ar
    27   15   16 ar
    28   15   40 1
    29   16   17 ar
    30   16   19 1
    31   17   18 ar
    32   17   41 1
    33   18   42 1
    34   20   21 1
    35   21   29 ar
    36   21   22 ar
    37   22   23 ar
    38   22   26 1
    39   23   24 1
    40   23   27 ar
    41   24   25 2
    42   25   43 1
    43   25   26 1
    44   27   28 ar
    45   28   30 1
    46   28   29 ar
@<TRIPOS>MOLECULE
ZINC39898080
   45    48     0     0     0
SMALL
USER_CHARGES

@<TRIPOS>ATOM
      1 C1         -0.1875    1.5894    0.8669 C.ar      1 <0>        -0.1275
      2 C2          0.9630    2.3379    0.7003 C.ar      1 <0>        -0.0824
      3 C3          2.1473    1.7171    0.3521 C.ar      1 <0>        -0.1502
      4 C4          2.1817    0.3448    0.1700 C.ar      1 <0>         0.1199
      5 C5          1.0291   -0.4036    0.3370 C.ar      1 <0>        -0.1321
      6 C6         -0.1544    0.2195    0.6854 C.ar      1 <0>        -0.0739
      7 C7          1.0648   -1.8971    0.1387 C.3       1 <0>         0.2520
      8 H1          1.8161   -2.1584   -0.6065 H         1 <0>         0.1146
      9 C8          1.3668   -2.5853    1.4417 C.2       1 <0>        -0.1669
     10 C9          2.2645   -2.7669    2.4993 C.2       1 <0>         0.1229
     11 N1          1.7221   -3.6328    3.3327 N.2       1 <0>        -0.2361
     12 N2          0.5715   -4.0157    2.9064 N.pl3     1 <0>        -0.3298
     13 H2         -0.0073   -4.6497    3.3581 H         1 <0>         0.4548
     14 C10         0.2847   -3.3972    1.7227 C.2       1 <0>        -0.0570
     15 C11        -0.6996   -3.2524    0.6444 C.2       1 <0>         0.6010
     16 O1         -1.7656   -3.8361    0.5944 O.2       1 <0>        -0.5113
     17 N3         -0.2556   -2.3827   -0.2828 N.am      1 <0>        -0.5948
     18 C12        -0.9666   -1.9874   -1.5013 C.3       1 <0>         0.1410
     19 C13        -0.5868   -2.9328   -2.6427 C.3       1 <0>        -0.1420
     20 C14        -1.3293   -2.5200   -3.9152 C.3       1 <0>         0.0797
     21 O2         -0.9746   -3.4029   -4.9814 O.3       1 <0>        -0.5733
     22 C15         3.5847   -2.1070    2.6541 C.ar      1 <0>        -0.0317
     23 C16         4.4781   -2.0714    1.5864 C.ar      1 <0>        -0.0616
     24 C17         5.7058   -1.4561    1.7355 C.ar      1 <0>        -0.0408
     25 C18         6.0512   -0.8742    2.9436 C.ar      1 <0>        -0.0837
     26 C19         5.1714   -0.9050    4.0088 C.ar      1 <0>        -0.1346
     27 C20         3.9343   -1.5137    3.8701 C.ar      1 <0>         0.1412
     28 O3          3.0663   -1.5391    4.9152 O.3       1 <0>        -0.4878
     29 Cl1         6.8192   -1.4126    0.4043 Cl        1 <0>        -0.0593
     30 F1          3.3390   -0.2631   -0.1709 F         1 <0>        -0.1287
     31 H3         -1.1118    2.0749    1.1434 H         1 <0>         0.1318
     32 H4          0.9359    3.4082    0.8420 H         1 <0>         0.1351
     33 H5          3.0458    2.3021    0.2217 H         1 <0>         0.1391
     34 H6         -1.0537   -0.3642    0.8161 H         1 <0>         0.1284
     35 H7         -2.0415   -2.0403   -1.3281 H         1 <0>         0.0954
     36 H8         -0.6913   -0.9670   -1.7678 H         1 <0>         0.0925
     37 H9          0.4881   -2.8799   -2.8159 H         1 <0>         0.0761
     38 H10        -0.8621   -3.9532   -2.3763 H         1 <0>         0.0780
     39 H11        -2.4042   -2.5729   -3.7421 H         1 <0>         0.0499
     40 H12        -1.0540   -1.4996   -4.1817 H         1 <0>         0.0491
     41 H13        -1.4092   -3.2002   -5.8211 H         1 <0>         0.3836
     42 H14         4.2116   -2.5247    0.6431 H         1 <0>         0.1387
     43 H15         7.0126   -0.3946    3.0540 H         1 <0>         0.1411
     44 H16         5.4463   -0.4499    4.9488 H         1 <0>         0.1432
     45 H17         3.1650   -2.3105    5.4899 H         1 <0>         0.3964
@<TRIPOS>BOND
     1    1    6 ar
     2    1    2 ar
     3    1   31 1
     4    2    3 ar
     5    2   32 1
     6    3    4 ar
     7    3   33 1
     8    4    5 ar
     9    4   30 1
    10    5    6 ar
    11    5    7 1
    12    6   34 1
    13    7    8 1
    14    7   17 1
    15    7    9 1
    16    9   14 2
    17    9   10 1
    18   10   11 2
    19   10   22 1
    20   11   12 1
    21   12   13 1
    22   12   14 1
    23   14   15 1
    24   15   16 2
    25   15   17 am
    26   17   18 1
    27   18   19 1
    28   18   35 1
    29   18   36 1
    30   19   20 1
    31   19   37 1
    32   19   38 1
    33   20   21 1
    34   20   39 1
    35   20   40 1
    36   21   41 1
    37   22   27 ar
    38   22   23 ar
    39   23   24 ar
    40   23   42 1
    41   24   25 ar
    42   24   29 1
    43   25   26 ar
    44   25   43 1
    45   26   27 ar
    46   26   44 1
    47   27   28 1
    48   28   45 1
@<TRIPOS>MOLECULE
ZINC40287482
   49    52     0     0     0
SMALL
USER_CHARGES

@<TRIPOS>ATOM
      1 C1         -0.0173    1.4248    0.0099 C.3       1 <0>         0.0262
      2 O1          0.0021   -0.0041    0.0020 O.3       1 <0>        -0.3045
      3 C2         -1.2011   -0.6379    0.0101 C.ar      1 <0>         0.1389
      4 C3         -2.3748    0.1005    0.0195 C.ar      1 <0>        -0.2229
      5 C4         -3.5982   -0.5428    0.0277 C.ar      1 <0>        -0.0072
      6 C5         -3.6572   -1.9238    0.0266 C.ar      1 <0>        -0.2131
      7 C6         -2.4882   -2.6696    0.0172 C.ar      1 <0>         0.1462
      8 C7         -1.2561   -2.0266    0.0032 C.ar      1 <0>         0.0357
      9 O2         -0.1065   -2.7549   -0.0117 O.3       1 <0>        -0.4728
     10 O3         -2.5472   -4.0282    0.0166 O.3       1 <0>        -0.3047
     11 C8         -3.8474   -4.6211    0.0259 C.3       1 <0>         0.0241
     12 C9         -4.8712    0.2637    0.0384 C.3       1 <0>         0.0353
     13 H1         -4.6340    1.3276    0.0381 H         1 <0>         0.0998
     14 C10        -5.6954   -0.0840    1.2827 C.3       1 <0>        -0.0846
     15 C11        -6.4097   -1.3940    1.1246 C.2       1 <0>         0.3069
     16 N1         -6.8517   -1.8300   -0.0171 N.2       1 <0>        -0.4708
     17 C12        -6.6295   -1.0795   -1.1396 C.2       1 <0>         0.0767
     18 C13        -5.7012   -0.0752   -1.1761 C.2       1 <0>        -0.0575
     19 N2         -5.7031    0.4797   -2.4142 N.pl3     1 <0>        -0.3794
     20 C14        -6.6161   -0.1283   -3.2028 C.2       1 <0>         0.0180
     21 C15        -7.2412   -1.1252   -2.4666 C.2       1 <0>        -0.1536
     22 C16        -8.2961   -2.0342   -2.9239 C.2       1 <0>         0.5444
     23 O4         -8.7152   -1.9574   -4.0715 O.co2     1 <0>        -0.7014
     24 O5         -8.7580   -2.8703   -2.1583 O.co2     1 <0>        -0.6720
     25 C17        -4.8745    1.5359   -2.8182 C.ar      1 <0>         0.1288
     26 C18        -4.7794    2.6816   -2.0399 C.ar      1 <0>        -0.0990
     27 C19        -3.9626    3.7210   -2.4395 C.ar      1 <0>        -0.1361
     28 C20        -3.2387    3.6210   -3.6159 C.ar      1 <0>         0.0907
     29 C21        -3.3326    2.4791   -4.3938 C.ar      1 <0>        -0.1320
     30 C22        -4.1436    1.4351   -3.9943 C.ar      1 <0>        -0.0898
     31 F1         -2.4402    4.6388   -4.0053 F         1 <0>        -0.1384
     32 O6         -6.6023   -2.1571    2.2215 O.3       1 <0>        -0.4762
     33 H2          1.0053    1.8021    0.0021 H         1 <0>         0.1003
     34 H3         -0.5445    1.7859   -0.8732 H         1 <0>         0.0556
     35 H4         -0.5275    1.7763    0.9067 H         1 <0>         0.0561
     36 H5         -2.3329    1.1797    0.0207 H         1 <0>         0.1318
     37 H6         -4.6151   -2.4227    0.0334 H         1 <0>         0.1453
     38 H7          0.2341   -2.9701    0.8673 H         1 <0>         0.3778
     39 H8         -4.3845   -4.3050    0.9202 H         1 <0>         0.0577
     40 H9         -4.3978   -4.3036   -0.8597 H         1 <0>         0.0640
     41 H10        -3.7517   -5.7069    0.0243 H         1 <0>         0.1034
     42 H11        -5.0307   -0.1430    2.1446 H         1 <0>         0.1015
     43 H12        -6.4296    0.7031    1.4545 H         1 <0>         0.1014
     44 H13        -6.8241    0.1196   -4.2332 H         1 <0>         0.1756
     45 H14        -5.3440    2.7601   -1.1226 H         1 <0>         0.1394
     46 H15        -3.8886    4.6125   -1.8345 H         1 <0>         0.1424
     47 H16        -2.7678    2.4032   -5.3113 H         1 <0>         0.1433
     48 H17        -4.2126    0.5427   -4.5986 H         1 <0>         0.1431
     49 H18        -7.0683   -2.9862    2.0471 H         1 <0>         0.4053
@<TRIPOS>BOND
     1    1    2 1
     2    1   33 1
     3    1   34 1
     4    1   35 1
     5    2    3 1
     6    3    8 ar
     7    3    4 ar
     8    4    5 ar
     9    4   36 1
    10    5    6 ar
    11    5   12 1
    12    6    7 ar
    13    6   37 1
    14    7    8 ar
    15    7   10 1
    16    8    9 1
    17    9   38 1
    18   10   11 1
    19   11   39 1
    20   11   40 1
    21   11   41 1
    22   12   13 1
    23   12   18 1
    24   12   14 1
    25   14   15 1
    26   14   42 1
    27   14   43 1
    28   15   16 2
    29   15   32 1
    30   16   17 1
    31   17   21 1
    32   17   18 2
    33   18   19 1
    34   19   20 1
    35   19   25 1
    36   20   21 2
    37   20   44 1
    38   21   22 1
    39   22   23 2
    40   22   24 1
    41   25   30 ar
    42   25   26 ar
    43   26   27 ar
    44   26   45 1
    45   27   28 ar
    46   27   46 1
    47   28   29 ar
    48   28   31 1
    49   29   30 ar
    50   29   47 1
    51   30   48 1
    52   32   49 1
@<TRIPOS>MOLECULE
ZINC64612960
   47    50     0     0     0
SMALL
USER_CHARGES

@<TRIPOS>ATOM
      1 C1         -0.0173    1.4248    0.0099 C.3       1 <0>         0.0355
      2 O1          0.0021   -0.0041    0.0020 O.3       1 <0>        -0.3308
      3 C2         -1.2012   -0.6379    0.0101 C.ar      1 <0>         0.0134
      4 C3         -2.3743    0.1020    0.0196 C.ar      1 <0>        -0.1562
      5 C4         -3.5966   -0.5409    0.0278 C.ar      1 <0>        -0.1493
      6 C5         -3.6509   -1.9284    0.0266 C.ar      1 <0>         0.2521
      7 C6         -2.4759   -2.6684    0.0171 C.ar      1 <0>        -0.2298
      8 C7         -1.2545   -2.0239    0.0032 C.ar      1 <0>        -0.0896
      9 N1         -4.8890   -2.5806    0.0353 N.2       1 <0>        -1.0914
     10 S1         -4.9532   -4.2354    0.0339 S.o2      1 <0>         2.6157
     11 O2         -4.4281   -4.6611   -1.2160 O.2       1 <0>        -1.0282
     12 O3         -4.4089   -4.6640    1.2746 O.2       1 <0>        -1.0286
     13 C8         -6.6553   -4.6907    0.0465 C.2       1 <0>        -0.6742
     14 C9         -7.3585   -5.1590    1.0719 C.2       1 <0>         0.1170
     15 N2         -8.6465   -5.4099    0.7402 N.2       1 <0>        -0.4683
     16 C10        -8.9204   -5.1443   -0.4921 C.2       1 <0>         0.1174
     17 C11        -7.6359   -4.6265   -1.1099 C.3       1 <0>        -0.0834
     18 C12       -10.2517   -5.3097   -1.1786 C.3       1 <0>         0.2749
     19 H1        -10.7924   -4.3633   -1.1734 H         1 <0>         0.1390
     20 N3        -11.0490   -6.3503   -0.4898 N.3       1 <0>        -0.4869
     21 N4        -11.7279   -7.0546   -1.5911 N.3       1 <0>        -0.4930
     22 C13       -10.6961   -7.0386   -2.6609 C.3       1 <0>         0.2370
     23 H2         -9.9761   -7.8423   -2.5065 H         1 <0>         0.1123
     24 O4        -10.0538   -5.7526   -2.5296 O.3       1 <0>        -0.3925
     25 C14       -11.3425   -7.1670   -4.0162 C.ar      1 <0>        -0.1054
     26 C15       -12.6154   -6.6694   -4.2242 C.ar      1 <0>        -0.0693
     27 C16       -13.2090   -6.7862   -5.4667 C.ar      1 <0>        -0.1511
     28 C17       -12.5284   -7.4017   -6.5035 C.ar      1 <0>         0.1092
     29 C18       -11.2535   -7.8996   -6.2940 C.ar      1 <0>        -0.1518
     30 C19       -10.6598   -7.7771   -5.0520 C.ar      1 <0>        -0.0604
     31 F1        -13.1079   -7.5168   -7.7184 F         1 <0>        -0.1370
     32 H3          1.0053    1.8021    0.0021 H         1 <0>         0.0853
     33 H4         -0.5445    1.7859   -0.8732 H         1 <0>         0.0454
     34 H5         -0.5275    1.7763    0.9067 H         1 <0>         0.0455
     35 H6         -2.3319    1.1812    0.0208 H         1 <0>         0.1119
     36 H7         -4.5100    0.0354    0.0355 H         1 <0>         0.1154
     37 H8         -2.5172   -3.7476    0.0162 H         1 <0>         0.1036
     38 H9         -0.3406   -2.5992   -0.0090 H         1 <0>         0.1120
     39 H10        -6.9488   -5.3215    2.0579 H         1 <0>         0.1745
     40 H11        -7.7582   -3.6000   -1.4557 H         1 <0>         0.1360
     41 H12        -7.3138   -5.2739   -1.9255 H         1 <0>         0.1314
     42 H13       -10.4531   -6.9785    0.0282 H         1 <0>         0.3769
     43 H14       -12.5571   -6.5582   -1.8810 H         1 <0>         0.3620
     44 H15       -13.1463   -6.1896   -3.4152 H         1 <0>         0.1334
     45 H16       -14.2036   -6.3977   -5.6289 H         1 <0>         0.1407
     46 H17       -10.7217   -8.3803   -7.1018 H         1 <0>         0.1410
     47 H18        -9.6637   -8.1614   -4.8896 H         1 <0>         0.1388
@<TRIPOS>BOND
     1    1    2 1
     2    1   32 1
     3    1   33 1
     4    1   34 1
     5    2    3 1
     6    3    8 ar
     7    3    4 ar
     8    4    5 ar
     9    4   35 1
    10    5    6 ar
    11    5   36 1
    12    6    7 ar
    13    6    9 1
    14    7    8 ar
    15    7   37 1
    16    8   38 1
    17    9   10 1
    18   10   11 2
    19   10   12 2
    20   10   13 1
    21   13   17 1
    22   13   14 2
    23   14   15 1
    24   14   39 1
    25   15   16 2
    26   16   17 1
    27   16   18 1
    28   17   40 1
    29   17   41 1
    30   18   19 1
    31   18   24 1
    32   18   20 1
    33   20   21 1
    34   20   42 1
    35   21   22 1
    36   21   43 1
    37   22   23 1
    38   22   24 1
    39   22   25 1
    40   25   30 ar
    41   25   26 ar
    42   26   27 ar
    43   26   44 1
    44   27   28 ar
    45   27   45 1
    46   28   29 ar
    47   28   31 1
    48   29   30 ar
    49   29   46 1
    50   30   47 1
@<TRIPOS>MOLECULE
ZINC17076638
   47    50     0     0     0
SMALL
USER_CHARGES
(1S,6R)-6-[[3-(cyclopropylcarbamoyl)-5,6-dihydro-4H-cyclopenta[d]thiophen-2-yl]carbamoyl]cyclohex-3-ene-1-carboxylic acid
@<TRIPOS>ATOM
      1 C1         -0.9834    1.2052    1.1850 C.3       1 <0>        -0.1154
      2 C2         -2.3714    1.1395    0.5097 C.3       1 <0>        -0.0586
      3 C3         -2.1395    1.5582   -0.9427 C.2       1 <0>        -0.0836
      4 C4         -0.8255    1.4548   -1.2114 C.2       1 <0>        -0.2594
      5 S1         -0.6709    1.9520   -2.9095 S.3       1 <0>         0.2495
      6 C5         -2.3314    2.2957   -3.2556 C.2       1 <0>         0.1097
      7 C6         -2.9667    2.0192   -2.0571 C.2       1 <0>        -0.2441
      8 C7         -4.4165    2.1820   -1.9106 C.2       1 <0>         0.5945
      9 O1         -5.1614    1.2514   -2.1564 O.2       1 <0>        -0.5436
     10 N1         -4.9243    3.3623   -1.5036 N.am      1 <0>        -0.6881
     11 C8         -6.3729    3.5250   -1.3572 C.3       1 <0>         0.0790
     12 C9         -6.9964    4.8159   -1.8916 C.3       1 <0>        -0.1874
     13 C10        -6.8686    4.5955   -0.3829 C.3       1 <0>        -0.1922
     14 N2         -2.8898    2.7406   -4.4443 N.am      1 <0>        -0.5969
     15 C11        -2.1046    2.9574   -5.5181 C.2       1 <0>         0.5345
     16 O2         -0.9096    2.7634   -5.4445 O.2       1 <0>        -0.5062
     17 C12        -2.7114    3.4408   -6.8100 C.3       1 <0>        -0.0828
     18 H1         -3.7772    3.2127   -6.8221 H         1 <0>         0.0943
     19 C13        -2.0243    2.7513   -7.9907 C.3       1 <0>        -0.0700
     20 C14        -0.6200    3.2591   -8.1399 C.2       1 <0>        -0.1602
     21 C15        -0.1825    4.3513   -7.6002 C.2       1 <0>        -0.1268
     22 C16        -1.0155    5.2570   -6.7412 C.3       1 <0>        -0.0717
     23 C17        -2.5020    4.9545   -6.9433 C.3       1 <0>        -0.1182
     24 H2         -2.8110    5.2811   -7.9363 H         1 <0>         0.0872
     25 C18        -3.3120    5.6723   -5.8946 C.2       1 <0>         0.4672
     26 O3         -3.9891    5.0415   -5.1177 O.co2     1 <0>        -0.6383
     27 C19        -0.0414    0.9797   -0.0182 C.3       1 <0>        -0.0249
     28 H3         -0.8693    0.4119    1.9238 H         1 <0>         0.0792
     29 H4         -0.8137    2.1831    1.6354 H         1 <0>         0.0745
     30 H5         -3.0598    1.8306    0.9961 H         1 <0>         0.0688
     31 H6         -2.7638    0.1234    0.5512 H         1 <0>         0.0777
     32 H7         -4.3307    4.1040   -1.3077 H         1 <0>         0.4051
     33 H8         -6.9595    2.6102   -1.4408 H         1 <0>         0.1346
     34 H9         -6.3288    5.5442   -2.3521 H         1 <0>         0.1067
     35 H10        -7.9934    4.7506   -2.3271 H         1 <0>         0.0997
     36 H11        -7.7816    4.3852    0.1741 H         1 <0>         0.0995
     37 H12        -6.1170    5.1788    0.1490 H         1 <0>         0.0949
     38 H13        -3.8455    2.8957   -4.5031 H         1 <0>         0.4312
     39 H14        -2.0030    1.6753   -7.8182 H         1 <0>         0.0685
     40 H15        -2.5807    2.9598   -8.9045 H         1 <0>         0.0800
     41 H16         0.0685    2.6768   -8.7343 H         1 <0>         0.0971
     42 H17         0.8461    4.6278   -7.7790 H         1 <0>         0.0962
     43 H18        -0.7543    5.1029   -5.6943 H         1 <0>         0.0693
     44 H19        -0.8179    6.2941   -7.0119 H         1 <0>         0.0757
     45 H20         0.2002   -0.0784   -0.1188 H         1 <0>         0.0782
     46 H21         0.8694    1.5675    0.0967 H         1 <0>         0.0738
     47 O4         -3.2813    7.0123   -5.8236 O.co2     1 <0>        -0.7582
@<TRIPOS>BOND
     1    1   27 1
     2    1    2 1
     3    1   28 1
     4    1   29 1
     5    2    3 1
     6    2   30 1
     7    2   31 1
     8    3    7 1
     9    3    4 2
    10    4    5 1
    11    4   27 1
    12    5    6 1
    13    6    7 2
    14    6   14 1
    15    7    8 1
    16    8    9 2
    17    8   10 am
    18   10   11 1
    19   10   32 1
    20   11   13 1
    21   11   12 1
    22   11   33 1
    23   12   13 1
    24   12   34 1
    25   12   35 1
    26   13   36 1
    27   13   37 1
    28   14   15 am
    29   14   38 1
    30   15   16 2
    31   15   17 1
    32   17   18 1
    33   17   23 1
    34   17   19 1
    35   19   20 1
    36   19   39 1
    37   19   40 1
    38   20   21 2
    39   20   41 1
    40   21   22 1
    41   21   42 1
    42   22   23 1
    43   22   43 1
    44   22   44 1
    45   23   24 1
    46   23   25 1
    47   25   26 2
    48   25   47 1
    49   27   45 1
    50   27   46 1
@<TRIPOS>MOLECULE
ZINC35600794
   29    29     0     0     0
SMALL
USER_CHARGES

@<TRIPOS>ATOM
      1 C1         -0.0187    1.5258    0.0104 C.3       1 <0>        -0.1881
      2 C2          0.0021   -0.0041    0.0020 C.3       1 <0>         0.0984
      3 H1          0.5293   -0.3651    0.8851 H         1 <0>         0.0622
      4 C3          0.7182   -0.4975   -1.2568 C.3       1 <0>         0.1158
      5 N1          0.7381   -1.9623   -1.2648 N.pl3     1 <0>        -1.1068
      6 S1          1.1072   -2.7777   -2.6581 S.o2      1 <0>         2.7040
      7 O1          1.0701   -4.1623   -2.3403 O.2       1 <0>        -0.9592
      8 O2          0.3060   -2.2101   -3.6853 O.2       1 <0>        -0.9430
      9 C4          2.7809   -2.3972   -3.0566 C.ar      1 <0>        -0.7307
     10 C5          3.7373   -3.3952   -3.0422 C.ar      1 <0>         0.0254
     11 C6          5.0558   -3.1061   -3.3540 C.ar      1 <0>        -0.1371
     12 C7          5.4253   -1.8182   -3.6813 C.ar      1 <0>         0.0229
     13 C8          4.4656   -0.8021   -3.6987 C.ar      1 <0>        -0.1792
     14 C9          3.1337   -1.1022   -3.3885 C.ar      1 <0>         0.2372
     15 F1          2.1974   -0.1284   -3.4077 F         1 <0>        -0.0955
     16 C10         4.8526    0.5764   -4.0468 C.2       1 <0>         0.5237
     17 O3          6.0163    0.8340   -4.3217 O.co2     1 <0>        -0.6732
     18 O4          4.0102    1.4631   -4.0610 O.co2     1 <0>        -0.6625
     19 Br1         6.3532   -4.4816   -3.3302 Br        1 <0>        -0.0466
     20 O5         -1.3386   -0.4987    0.0122 O.3       1 <0>        -0.5612
     21 H2          1.0039    1.9031    0.0027 H         1 <0>         0.0740
     22 H3         -0.5459    1.8868   -0.8726 H         1 <0>         0.0709
     23 H4         -0.5289    1.8773    0.9072 H         1 <0>         0.0616
     24 H5          0.1910   -0.1364   -2.1398 H         1 <0>         0.0953
     25 H6          1.7408   -0.1202   -1.2645 H         1 <0>         0.0850
     26 H7          0.5350   -2.4546   -0.4541 H         1 <0>         0.4194
     27 H8          3.4551   -4.4058   -2.7862 H         1 <0>         0.1559
     28 H9          6.4540   -1.5953   -3.9233 H         1 <0>         0.1556
     29 H10        -1.8531   -0.2245    0.7836 H         1 <0>         0.3760
@<TRIPOS>BOND
     1    1    2 1
     2    1   21 1
     3    1   22 1
     4    1   23 1
     5    2    3 1
     6    2    4 1
     7    2   20 1
     8    4    5 1
     9    4   24 1
    10    4   25 1
    11    5    6 1
    12    5   26 1
    13    6    7 2
    14    6    8 2
    15    6    9 1
    16    9   14 ar
    17    9   10 ar
    18   10   11 ar
    19   10   27 1
    20   11   12 ar
    21   11   19 1
    22   12   13 ar
    23   12   28 1
    24   13   14 ar
    25   13   16 1
    26   14   15 1
    27   16   17 2
    28   16   18 1
    29   20   29 1
@<TRIPOS>MOLECULE
ZINC49042923
   35    35     0     0     0
SMALL
USER_CHARGES

@<TRIPOS>ATOM
      1 C1          0.0362    1.5368    0.0340 C.3       1 <0>        -0.1564
      2 C2          0.0418    0.0069    0.0175 C.3       1 <0>         0.1470
      3 C3          0.7597   -0.4869   -1.2402 C.3       1 <0>        -0.1590
      4 N1          0.7391   -0.4917    1.2054 N.pl3     1 <0>        -0.9900
      5 C4          2.1414   -0.1352    1.4353 C.3       1 <0>         0.1064
      6 S1         -0.0577   -1.4584    2.2884 S.o2      1 <0>         2.7332
      7 O1          0.6178   -1.3191    3.5308 O.2       1 <0>        -1.0393
      8 O2         -1.4430   -1.1796    2.1391 O.2       1 <0>        -1.0230
      9 N2          0.1648   -3.0256    1.8019 N.2       1 <0>        -1.1304
     10 C5         -0.2970   -4.0775    2.5991 C.ar      1 <0>         0.3390
     11 C6         -1.6608   -4.2518    2.8007 C.ar      1 <0>        -0.1508
     12 C7         -2.1136   -5.2930    3.5890 C.ar      1 <0>         0.0150
     13 C8         -1.2114   -6.1605    4.1768 C.ar      1 <0>        -0.7354
     14 C9          0.1465   -5.9901    3.9785 C.ar      1 <0>         0.0095
     15 C10         0.6065   -4.9544    3.1871 C.ar      1 <0>        -0.0925
     16 Cl1         2.3111   -4.7457    2.9330 Cl        1 <0>        -0.0665
     17 S2         -1.7933   -7.4859    5.1814 S.o2      1 <0>         2.7097
     18 O3         -0.7291   -7.8281    6.0587 O.2       1 <0>        -0.9747
     19 O4         -3.0775   -7.1035    5.6544 O.2       1 <0>        -0.9749
     20 N3         -2.0242   -8.7895    4.1865 N.pl3     1 <0>        -1.2537
     21 Cl2        -2.7944   -3.1630    2.0637 Cl        1 <0>        -0.0304
     22 H1          1.0626    1.9039    0.0337 H         1 <0>         0.0541
     23 H2         -0.4826    1.9079   -0.8499 H         1 <0>         0.0594
     24 H3         -0.4752    1.8887    0.9299 H         1 <0>         0.0553
     25 H4         -0.9845   -0.3601    0.0177 H         1 <0>         0.0963
     26 H5          1.7860   -0.1198   -1.2405 H         1 <0>         0.0534
     27 H6          0.7637   -1.5768   -1.2519 H         1 <0>         0.0651
     28 H7          0.2409   -0.1159   -2.1241 H         1 <0>         0.0564
     29 H8          2.1915    0.7857    2.0164 H         1 <0>         0.0411
     30 H9          2.6353   -0.9378    1.9830 H         1 <0>         0.0673
     31 H10         2.6406    0.0119    0.4776 H         1 <0>         0.0601
     32 H11        -3.1734   -5.4289    3.7464 H         1 <0>         0.1380
     33 H12         0.8483   -6.6696    4.4391 H         1 <0>         0.1392
     34 H13        -1.8377   -8.7144    3.2376 H         1 <0>         0.4170
     35 H14        -2.3460   -9.6281    4.5527 H         1 <0>         0.4144
@<TRIPOS>BOND
     1    1    2 1
     2    1   22 1
     3    1   23 1
     4    1   24 1
     5    2    3 1
     6    2    4 1
     7    2   25 1
     8    3   26 1
     9    3   27 1
    10    3   28 1
    11    4    5 1
    12    4    6 1
    13    5   29 1
    14    5   30 1
    15    5   31 1
    16    6    7 2
    17    6    8 2
    18    6    9 1
    19    9   10 1
    20   10   15 ar
    21   10   11 ar
    22   11   12 ar
    23   11   21 1
    24   12   13 ar
    25   12   32 1
    26   13   14 ar
    27   13   17 1
    28   14   15 ar
    29   14   33 1
    30   15   16 1
    31   17   18 2
    32   17   19 2
    33   17   20 1
    34   20   34 1
    35   20   35 1
@<TRIPOS>MOLECULE
ZINC63634238
   38    39     0     0     0
SMALL
USER_CHARGES

@<TRIPOS>ATOM
      1 C1         -0.0173    1.4248    0.0099 C.3       1 <0>         0.0318
      2 O1          0.0021   -0.0041    0.0020 O.3       1 <0>        -0.3161
      3 C2          0.6066   -0.6079   -1.0571 C.ar      1 <0>        -0.0126
      4 C3          1.1693    0.1583   -2.0559 C.ar      1 <0>        -0.0886
      5 C4          1.7916   -0.4623   -3.1452 C.ar      1 <0>        -0.2189
      6 C5          1.8390   -1.8641   -3.2143 C.ar      1 <0>         0.3393
      7 C6          1.2694   -2.6237   -2.2034 C.ar      1 <0>        -0.3251
      8 C7          0.6602   -2.0009   -1.1263 C.ar      1 <0>         0.1844
      9 O2          0.1084   -2.7488   -0.1363 O.3       1 <0>        -0.3102
     10 C8          0.1982   -4.1688   -0.2691 C.3       1 <0>         0.0228
     11 N1          2.4551   -2.4888   -4.2935 N.2       1 <0>        -1.0181
     12 S1          2.5097   -4.1421   -4.3725 S.o2      1 <0>         2.5877
     13 O3          3.3349   -4.5729   -3.2989 O.2       1 <0>        -1.0183
     14 O4          1.1687   -4.5857   -4.5281 O.2       1 <0>        -1.0127
     15 C9          3.3557   -4.5650   -5.8591 C.ar      1 <0>        -0.6419
     16 C10         4.5708   -5.2215   -5.7995 C.ar      1 <0>         0.0172
     17 C11         5.2364   -5.5544   -6.9641 C.ar      1 <0>        -0.1628
     18 C12         4.6871   -5.2307   -8.1931 C.ar      1 <0>         0.1345
     19 C13         3.4692   -4.5726   -8.2550 C.ar      1 <0>         0.0051
     20 C14         2.8005   -4.2447   -7.0859 C.ar      1 <0>         0.2095
     21 F1          1.6101   -3.6084   -7.1437 F         1 <0>        -0.0914
     22 F2          2.9318   -4.2555   -9.4533 F         1 <0>        -0.1179
     23 F3          5.3383   -5.5559   -9.3313 F         1 <0>        -0.1185
     24 C15         2.3933    0.3510   -4.2142 C.2       1 <0>         0.5675
     25 O5          2.9335   -0.1909   -5.1598 O.2       1 <0>        -0.5050
     26 N2          2.3458    1.6962   -4.1454 N.am      1 <0>        -0.8763
     27 H1          1.0053    1.8021    0.0021 H         1 <0>         0.0458
     28 H2         -0.5445    1.7859   -0.8732 H         1 <0>         0.0459
     29 H3         -0.5275    1.7763    0.9067 H         1 <0>         0.0882
     30 H4          1.1296    1.2360   -1.9979 H         1 <0>         0.1236
     31 H5          1.3044   -3.7019   -2.2538 H         1 <0>         0.1196
     32 H6          1.2466   -4.4643   -0.3096 H         1 <0>         0.0564
     33 H7         -0.2806   -4.6447    0.5867 H         1 <0>         0.0950
     34 H8         -0.3028   -4.4804   -1.1855 H         1 <0>         0.0564
     35 H9          5.0008   -5.4744   -4.8416 H         1 <0>         0.1670
     36 H10         6.1858   -6.0669   -6.9155 H         1 <0>         0.1588
     37 H11         1.9151    2.1283   -3.3913 H         1 <0>         0.3874
     38 H12         2.7424    2.2322   -4.8499 H         1 <0>         0.3905
@<TRIPOS>BOND
     1    1    2 1
     2    1   27 1
     3    1   28 1
     4    1   29 1
     5    2    3 1
     6    3    8 ar
     7    3    4 ar
     8    4    5 ar
     9    4   30 1
    10    5    6 ar
    11    5   24 1
    12    6    7 ar
    13    6   11 1
    14    7    8 ar
    15    7   31 1
    16    8    9 1
    17    9   10 1
    18   10   32 1
    19   10   33 1
    20   10   34 1
    21   11   12 1
    22   12   13 2
    23   12   14 2
    24   12   15 1
    25   15   20 ar
    26   15   16 ar
    27   16   17 ar
    28   16   35 1
    29   17   18 ar
    30   17   36 1
    31   18   19 ar
    32   18   23 1
    33   19   20 ar
    34   19   22 1
    35   20   21 1
    36   24   25 2
    37   24   26 am
    38   26   37 1
    39   26   38 1
@<TRIPOS>MOLECULE
ZINC67072429
   43    44     0     0     0
SMALL
USER_CHARGES

@<TRIPOS>ATOM
      1 C1          0.5577    1.5116   -0.1483 C.3       1 <0>        -0.1686
      2 C2          0.5856    0.0049   -0.1608 C.2       1 <0>         0.4983
      3 O1          1.1350   -0.5990    0.7362 O.2       1 <0>        -0.5350
      4 N1          0.0001   -0.6716   -1.1688 N.am      1 <0>        -0.6599
      5 C3          0.1090   -2.0677   -1.2323 C.ar      1 <0>         0.0096
      6 C4          0.1183   -2.8166   -0.0595 C.ar      1 <0>        -0.0333
      7 C5          0.2250   -4.1905   -0.1108 C.ar      1 <0>        -0.2446
      8 C6          0.3236   -4.8373   -1.3365 C.ar      1 <0>         0.3304
      9 C7          0.3144   -4.0882   -2.5227 C.ar      1 <0>        -0.2113
     10 C8          0.2011   -2.6969   -2.4608 C.ar      1 <0>        -0.0562
     11 C9          0.4186   -4.7658   -3.8281 C.2       1 <0>         0.5695
     12 O2          0.5129   -5.9771   -3.8785 O.2       1 <0>        -0.4973
     13 N2          0.4094   -4.0427   -4.9654 N.am      1 <0>        -0.7466
     14 C10         0.5130   -4.7160   -6.2623 C.3       1 <0>         0.1663
     15 C11         0.4792   -3.6896   -7.3653 C.ar      1 <0>        -0.1044
     16 C12        -0.6948   -3.4557   -8.0559 C.ar      1 <0>        -0.1069
     17 C13        -0.7259   -2.5126   -9.0687 C.ar      1 <0>         0.0859
     18 C14         0.4193   -1.8035   -9.3899 C.ar      1 <0>        -0.1226
     19 C15         1.5929   -2.0373   -8.6994 C.ar      1 <0>        -0.1281
     20 C16         1.6227   -2.9770   -7.6828 C.ar      1 <0>         0.1073
     21 F1          2.7691   -3.2020   -7.0043 F         1 <0>        -0.1247
     22 F2         -1.8735   -2.2843   -9.7441 F         1 <0>        -0.1355
     23 N3          0.4317   -6.2228   -1.3874 N.2       1 <0>        -1.0369
     24 S1          0.4429   -7.1045    0.0144 S.o2      1 <0>         2.5146
     25 O3          1.6237   -6.6951    0.6907 O.2       1 <0>        -1.0283
     26 O4         -0.8364   -6.8833    0.5920 O.2       1 <0>        -1.0299
     27 C17         0.5965   -8.8306   -0.5218 C.3       1 <0>        -0.6315
     28 H1          1.4333    1.8956   -0.6717 H         1 <0>         0.0908
     29 H2         -0.3462    1.8624   -0.6464 H         1 <0>         0.0767
     30 H3          0.5657    1.8665    0.8822 H         1 <0>         0.0898
     31 H4         -0.4967   -0.1924   -1.8504 H         1 <0>         0.3998
     32 H5          0.0419   -2.3192    0.8961 H         1 <0>         0.1229
     33 H6          0.2323   -4.7650    0.8037 H         1 <0>         0.1113
     34 H7          0.1892   -2.1139   -3.3698 H         1 <0>         0.1075
     35 H8          0.3342   -3.0764   -4.9251 H         1 <0>         0.3907
     36 H9          1.4504   -5.2701   -6.3102 H         1 <0>         0.0782
     37 H10        -0.3230   -5.4052   -6.3817 H         1 <0>         0.0790
     38 H11        -1.5879   -4.0090   -7.8057 H         1 <0>         0.1490
     39 H12         0.3951   -1.0679  -10.1803 H         1 <0>         0.1448
     40 H13         2.4862   -1.4845   -8.9502 H         1 <0>         0.1467
     41 H14         1.5219   -8.9554   -1.0840 H         1 <0>         0.1165
     42 H15         0.6113   -9.4824    0.3517 H         1 <0>         0.1000
     43 H16        -0.2515   -9.0911   -1.1552 H         1 <0>         0.1163
@<TRIPOS>BOND
     1    1    2 1
     2    1   28 1
     3    1   29 1
     4    1   30 1
     5    2    3 2
     6    2    4 am
     7    4    5 1
     8    4   31 1
     9    5   10 ar
    10    5    6 ar
    11    6    7 ar
    12    6   32 1
    13    7    8 ar
    14    7   33 1
    15    8    9 ar
    16    8   23 1
    17    9   10 ar
    18    9   11 1
    19   10   34 1
    20   11   12 2
    21   11   13 am
    22   13   14 1
    23   13   35 1
    24   14   15 1
    25   14   36 1
    26   14   37 1
    27   15   20 ar
    28   15   16 ar
    29   16   17 ar
    30   16   38 1
    31   17   18 ar
    32   17   22 1
    33   18   19 ar
    34   18   39 1
    35   19   20 ar
    36   19   40 1
    37   20   21 1
    38   23   24 1
    39   24   25 2
    40   24   26 2
    41   24   27 1
    42   27   41 1
    43   27   42 1
    44   27   43 1
@<TRIPOS>MOLECULE
ZINC12937633
   47    49     0     0     0
SMALL
USER_CHARGES
(2S)-2-(benzenesulfonamido)-N-(2,2-difluoro-1,3-benzodioxol-5-yl)-4-methylsulfanyl-butanamide
@<TRIPOS>ATOM
      1 C1         -3.4585   -4.1259    1.6409 C.3       1 <0>        -0.1221
      2 S1         -2.5856   -2.8180    2.5453 S.3       1 <0>        -0.2529
      3 C2         -1.2363   -2.3396    1.4312 C.3       1 <0>        -0.0928
      4 C3         -0.4091   -1.2280    2.0801 C.3       1 <0>        -0.1218
      5 C4          0.6505   -0.7374    1.0913 C.3       1 <0>         0.1481
      6 H1          1.2199    0.0752    1.5425 H         1 <0>         0.1228
      7 C5          1.5806   -1.8722    0.7477 C.2       1 <0>         0.5141
      8 O1          1.6861   -2.2430   -0.4023 O.2       1 <0>        -0.4976
      9 N1          2.2954   -2.4752    1.7183 N.am      1 <0>        -0.6652
     10 C6          3.0769   -3.5984    1.4178 C.ar      1 <0>         0.1634
     11 C7          3.7193   -3.6889    0.1902 C.ar      1 <0>        -0.0997
     12 C8          4.4900   -4.7963   -0.1079 C.ar      1 <0>        -0.0610
     13 C9          4.6245   -5.8192    0.8170 C.ar      1 <0>         0.0150
     14 C10         3.9816   -5.7310    2.0494 C.ar      1 <0>         0.0479
     15 C11         3.2136   -4.6182    2.3493 C.ar      1 <0>        -0.1067
     16 O2          4.2688   -6.8526    2.7727 O.3       1 <0>        -0.2845
     17 C12         5.4204   -7.4367    2.1356 C.3       1 <0>         0.5716
     18 O3          5.3150   -6.9968    0.7687 O.3       1 <0>        -0.2844
     19 F1          6.5994   -6.9577    2.7167 F         1 <0>        -0.1521
     20 F2          5.3687   -8.8327    2.2112 F         1 <0>        -0.1141
     21 N2         -0.0045   -0.2567   -0.1277 N.pl3     1 <0>        -1.0983
     22 S2         -0.2819    1.3627   -0.3351 S.o2      1 <0>         2.6927
     23 O4         -0.8468    1.5154   -1.6301 O.2       1 <0>        -0.9469
     24 O5         -0.9384    1.8162    0.8407 O.2       1 <0>        -0.9445
     25 C13         1.2891    2.1596   -0.3739 C.ar      1 <0>        -0.6818
     26 C14         1.8588    2.6217    0.7977 C.ar      1 <0>        -0.0290
     27 C15         3.0938    3.2422    0.7680 C.ar      1 <0>        -0.1387
     28 C16         3.7540    3.4102   -0.4348 C.ar      1 <0>        -0.0601
     29 C17         3.1818    2.9531   -1.6072 C.ar      1 <0>        -0.1378
     30 C18         1.9494    2.3276   -1.5767 C.ar      1 <0>        -0.0148
     31 H2         -4.2979   -4.4825    2.2380 H         1 <0>         0.1047
     32 H3         -3.8279   -3.7294    0.6952 H         1 <0>         0.0784
     33 H4         -2.7744   -4.9518    1.4461 H         1 <0>         0.0767
     34 H5         -1.6524   -1.9805    0.4899 H         1 <0>         0.0882
     35 H6         -0.5989   -3.2030    1.2408 H         1 <0>         0.0809
     36 H7          0.0797   -1.6139    2.9746 H         1 <0>         0.0938
     37 H8         -1.0634   -0.3998    2.3521 H         1 <0>         0.1105
     38 H9          2.2687   -2.1314    2.6250 H         1 <0>         0.4188
     39 H10         3.6162   -2.8931   -0.5326 H         1 <0>         0.1621
     40 H11         4.9888   -4.8645   -1.0634 H         1 <0>         0.1506
     41 H12         2.7176   -4.5461    3.3060 H         1 <0>         0.1508
     42 H13        -0.2758   -0.8869   -0.8134 H         1 <0>         0.4289
     43 H14         1.3409    2.4945    1.7369 H         1 <0>         0.1418
     44 H15         3.5410    3.5990    1.6840 H         1 <0>         0.1353
     45 H16         4.7172    3.8983   -0.4585 H         1 <0>         0.1331
     46 H17         3.6976    3.0844   -2.5469 H         1 <0>         0.1352
     47 H18         1.5023    1.9704   -2.4926 H         1 <0>         0.1416
@<TRIPOS>BOND
     1    1    2 1
     2    1   31 1
     3    1   32 1
     4    1   33 1
     5    2    3 1
     6    3    4 1
     7    3   34 1
     8    3   35 1
     9    4    5 1
    10    4   36 1
    11    4   37 1
    12    5    6 1
    13    5    7 1
    14    5   21 1
    15    7    8 2
    16    7    9 am
    17    9   10 1
    18    9   38 1
    19   10   15 ar
    20   10   11 ar
    21   11   12 ar
    22   11   39 1
    23   12   13 ar
    24   12   40 1
    25   13   18 1
    26   13   14 ar
    27   14   15 ar
    28   14   16 1
    29   15   41 1
    30   16   17 1
    31   17   18 1
    32   17   19 1
    33   17   20 1
    34   21   22 1
    35   21   42 1
    36   22   23 2
    37   22   24 2
    38   22   25 1
    39   25   30 ar
    40   25   26 ar
    41   26   27 ar
    42   26   43 1
    43   27   28 ar
    44   27   44 1
    45   28   29 ar
    46   28   45 1
    47   29   30 ar
    48   29   46 1
    49   30   47 1
@<TRIPOS>MOLECULE
ZINC21126042
   50    52     0     0     0
SMALL
USER_CHARGES
methyl 2-[[4-[[4-(furan-2-carbonylamino)benzoyl]amino]phenyl]methylsulfanyl]acetate
@<TRIPOS>ATOM
      1 C1          1.4730    3.3472   -6.0098 C.3       1 <0>         0.0326
      2 O1          1.4398    2.3328   -4.9715 O.3       1 <0>        -0.3562
      3 C2          0.8407    2.6625   -3.8164 C.2       1 <0>         0.4772
      4 O2          0.3601    3.7623   -3.6776 O.2       1 <0>        -0.4829
      5 C3          0.7676    1.6610   -2.6928 C.3       1 <0>        -0.1135
      6 S1         -0.0951    2.4005   -1.2788 S.3       1 <0>        -0.1723
      7 C4         -0.0984    1.0849   -0.0298 C.3       1 <0>        -0.0595
      8 C5         -0.7951    1.5745    1.2136 C.ar      1 <0>        -0.0940
      9 C6         -0.0682    2.1963    2.2122 C.ar      1 <0>        -0.0769
     10 C7         -0.7046    2.6511    3.3505 C.ar      1 <0>        -0.1226
     11 C8         -2.0743    2.4733    3.4965 C.ar      1 <0>         0.1627
     12 C9         -2.8005    1.8433    2.4941 C.ar      1 <0>        -0.1468
     13 C10        -2.1590    1.3959    1.3559 C.ar      1 <0>        -0.0774
     14 N1         -2.7208    2.9272    4.6506 N.am      1 <0>        -0.6838
     15 C11        -2.2876    4.0423    5.2713 C.2       1 <0>         0.5638
     16 O3         -1.3951    4.7049    4.7782 O.2       1 <0>        -0.5177
     17 C12        -2.8962    4.4591    6.5491 C.ar      1 <0>        -0.1532
     18 C13        -3.9260    3.7018    7.1144 C.ar      1 <0>        -0.0632
     19 C14        -4.4881    4.0905    8.3093 C.ar      1 <0>        -0.1307
     20 C15        -4.0396    5.2422    8.9489 C.ar      1 <0>         0.1792
     21 C16        -3.0183    6.0016    8.3859 C.ar      1 <0>        -0.1498
     22 C17        -2.4481    5.6153    7.1942 C.ar      1 <0>        -0.0351
     23 N2         -4.6146    5.6360   10.1553 N.am      1 <0>        -0.6784
     24 C18        -5.0049    4.7073   11.0507 C.2       1 <0>         0.6101
     25 O4         -4.9323    3.5249   10.7718 O.2       1 <0>        -0.5004
     26 C19        -5.5167    5.1215   12.3605 C.2       1 <0>        -0.0900
     27 C20        -5.9437    4.2888   13.3553 C.2       1 <0>        -0.1073
     28 C21        -6.3443    5.1074   14.4226 C.2       1 <0>        -0.2254
     29 C22        -6.1468    6.3878   14.0377 C.2       1 <0>         0.0045
     30 O5         -5.6431    6.3919   12.7967 O.3       1 <0>        -0.1660
     31 H1          1.9888    2.9483   -6.8957 H         1 <0>         0.1068
     32 H2          2.0107    4.2328   -5.6402 H         1 <0>         0.0669
     33 H3          0.4446    3.6290   -6.2801 H         1 <0>         0.0668
     34 H4          0.2194    0.7695   -3.0314 H         1 <0>         0.1245
     35 H5          1.7856    1.3730   -2.3915 H         1 <0>         0.1247
     36 H6         -0.6282    0.2056   -0.4249 H         1 <0>         0.0941
     37 H7          0.9379    0.8091    0.2150 H         1 <0>         0.0940
     38 H8          0.9976    2.3300    2.1001 H         1 <0>         0.1284
     39 H9         -0.1371    3.1406    4.1281 H         1 <0>         0.1365
     40 H10        -3.8658    1.7038    2.6045 H         1 <0>         0.1288
     41 H11        -2.7231    0.9062    0.5759 H         1 <0>         0.1292
     42 H12        -3.5829    2.3741    5.0517 H         1 <0>         0.4331
     43 H13        -4.2773    2.8101    6.6164 H         1 <0>         0.1302
     44 H14        -5.2806    3.5031    8.7490 H         1 <0>         0.1462
     45 H15        -2.6725    6.8949    8.8848 H         1 <0>         0.1367
     46 H16        -1.6550    6.2048    6.7581 H         1 <0>         0.1429
     47 H17        -4.7500    6.7049   10.3770 H         1 <0>         0.4456
     48 H18        -5.9684    3.2094   13.3262 H         1 <0>         0.1628
     49 H19        -6.7368    4.7765   15.3727 H         1 <0>         0.1605
     50 H20        -6.3566    7.2633   14.6343 H         1 <0>         0.2144
@<TRIPOS>BOND
     1    1    2 1
     2    1   31 1
     3    1   32 1
     4    1   33 1
     5    2    3 1
     6    3    4 2
     7    3    5 1
     8    5    6 1
     9    5   34 1
    10    5   35 1
    11    6    7 1
    12    7    8 1
    13    7   36 1
    14    7   37 1
    15    8   13 ar
    16    8    9 ar
    17    9   10 ar
    18    9   38 1
    19   10   11 ar
    20   10   39 1
    21   11   12 ar
    22   11   14 1
    23   12   13 ar
    24   12   40 1
    25   13   41 1
    26   14   15 am
    27   14   42 1
    28   15   16 2
    29   15   17 1
    30   17   22 ar
    31   17   18 ar
    32   18   19 ar
    33   18   43 1
    34   19   20 ar
    35   19   44 1
    36   20   21 ar
    37   20   23 1
    38   21   22 ar
    39   21   45 1
    40   22   46 1
    41   23   24 am
    42   23   47 1
    43   24   25 2
    44   24   26 1
    45   26   30 1
    46   26   27 2
    47   27   28 1
    48   27   48 1
    49   28   29 2
    50   28   49 1
    51   29   30 1
    52   29   50 1
@<TRIPOS>MOLECULE
ZINC36213024
   68    70     0     0     0
SMALL
USER_CHARGES

@<TRIPOS>ATOM
      1 C1         -0.2263    1.0377   -1.7704 C.3       1 <0>        -0.1219
      2 C2         -0.2020   -0.4301   -1.4297 C.ar      1 <0>        -0.0559
      3 C3         -0.3868   -1.3716   -2.4265 C.ar      1 <0>        -0.1289
      4 C4         -0.3657   -2.7169   -2.1214 C.ar      1 <0>        -0.0527
      5 C5         -0.1573   -3.1272   -0.8037 C.ar      1 <0>        -0.1426
      6 C6          0.0285   -2.1722    0.1971 C.ar      1 <0>        -0.0786
      7 C7          0.0107   -0.8302   -0.1224 C.ar      1 <0>        -0.1283
      8 C8         -0.1339   -4.5672   -0.4693 C.2       1 <0>         0.5671
      9 O1         -0.2964   -5.3966   -1.3429 O.2       1 <0>        -0.5334
     10 N1          0.0675   -4.9601    0.8040 N.am      1 <0>        -0.7037
     11 C9          0.0907   -6.3870    1.1353 C.3       1 <0>         0.1370
     12 H1         -0.6226   -6.9180    0.5049 H         1 <0>         0.1151
     13 C10        -0.2889   -6.5755    2.6055 C.3       1 <0>        -0.0883
     14 C11        -1.7282   -6.1039    2.8249 C.3       1 <0>        -0.1277
     15 C12        -2.1164   -6.3262    4.2901 C.3       1 <0>         0.1114
     16 N2         -1.1261   -5.6610    5.1477 N.am      1 <0>        -0.6158
     17 C13         0.2968   -5.9746    4.9582 C.3       1 <0>         0.1083
     18 C14         0.6579   -5.7563    3.4856 C.3       1 <0>        -0.1355
     19 C15        -1.5154   -4.7797    6.0901 C.2       1 <0>         0.5175
     20 O2         -2.6930   -4.5290    6.2365 O.2       1 <0>        -0.5264
     21 C16        -0.4875   -4.1056    6.9620 C.3       1 <0>        -0.1325
     22 C17        -1.1889   -3.1608    7.9399 C.3       1 <0>        -0.0514
     23 C18        -2.1560   -3.9596    8.8160 C.3       1 <0>        -0.1539
     24 C19        -0.1453   -2.4765    8.8252 C.3       1 <0>        -0.1436
     25 C20        -1.9667   -2.1015    7.1565 C.3       1 <0>        -0.1534
     26 C21         1.4746   -6.9350    0.8996 C.2       1 <0>         0.5091
     27 O3          2.4270   -6.1847    0.8699 O.2       1 <0>        -0.5238
     28 N3          1.6538   -8.2589    0.7218 N.am      1 <0>        -0.7257
     29 C22         3.0079   -8.8052    0.6018 C.3       1 <0>         0.2055
     30 C23         2.9322  -10.2982    0.4113 C.2       1 <0>        -0.0443
     31 C24         2.8587  -10.9378   -0.7697 C.2       1 <0>        -0.1787
     32 C25         2.8059  -12.3214   -0.4836 C.2       1 <0>        -0.2172
     33 C26         2.8502  -12.4445    0.8552 C.2       1 <0>        -0.0262
     34 O4          2.9325  -11.2160    1.3918 O.3       1 <0>        -0.1718
     35 H2          0.7808    1.3685   -2.0244 H         1 <0>         0.0764
     36 H3         -0.8881    1.2024   -2.6207 H         1 <0>         0.0709
     37 H4         -0.5892    1.6039   -0.9126 H         1 <0>         0.0705
     38 H5         -0.5483   -1.0528   -3.4456 H         1 <0>         0.1310
     39 H6         -0.5104   -3.4508   -2.9003 H         1 <0>         0.1365
     40 H7          0.1901   -2.4831    1.2187 H         1 <0>         0.1225
     41 H8          0.1586   -0.0903    0.6503 H         1 <0>         0.1296
     42 H9          0.1972   -4.2982    1.5011 H         1 <0>         0.4047
     43 H10        -0.2084   -7.6301    2.8690 H         1 <0>         0.0965
     44 H11        -1.8041   -5.0433    2.5853 H         1 <0>         0.0729
     45 H12        -2.3994   -6.6718    2.1806 H         1 <0>         0.0827
     46 H13        -3.1034   -5.9022    4.4750 H         1 <0>         0.0975
     47 H14        -2.1288   -7.3943    4.5068 H         1 <0>         0.0691
     48 H15         0.9020   -5.3186    5.5840 H         1 <0>         0.0905
     49 H16         0.4812   -7.0140    5.2294 H         1 <0>         0.0738
     50 H17         1.6851   -6.0767    3.3115 H         1 <0>         0.0859
     51 H18         0.5596   -4.6989    3.2397 H         1 <0>         0.0695
     52 H19         0.0666   -4.8603    7.5202 H         1 <0>         0.0922
     53 H20         0.2014   -3.5366    6.3379 H         1 <0>         0.0922
     54 H21        -1.6018   -4.7143    9.3742 H         1 <0>         0.0453
     55 H22        -2.6556   -3.2865    9.5127 H         1 <0>         0.0518
     56 H23        -2.8994   -4.4471    8.1854 H         1 <0>         0.0822
     57 H24         0.5436   -1.9074    8.2010 H         1 <0>         0.0544
     58 H25        -0.6450   -1.8034    9.5218 H         1 <0>         0.0589
     59 H26         0.4088   -3.2312    9.3833 H         1 <0>         0.0544
     60 H27        -2.7102   -2.5890    6.5259 H         1 <0>         0.0822
     61 H28        -2.4664   -1.4284    7.8532 H         1 <0>         0.0517
     62 H29        -1.2777   -1.5324    6.5324 H         1 <0>         0.0451
     63 H30         0.8863   -8.8501    0.6732 H         1 <0>         0.4049
     64 H31         3.5069   -8.3543   -0.2560 H         1 <0>         0.1000
     65 H32         3.5711   -8.5826    1.5081 H         1 <0>         0.0861
     66 H33         2.8426  -10.4819   -1.7486 H         1 <0>         0.1514
     67 H34         2.7418  -13.1252   -1.2021 H         1 <0>         0.1520
     68 H35         2.8276  -13.3737    1.4051 H         1 <0>         0.2063
@<TRIPOS>BOND
     1    1    2 1
     2    1   35 1
     3    1   36 1
     4    1   37 1
     5    2    7 ar
     6    2    3 ar
     7    3    4 ar
     8    3   38 1
     9    4    5 ar
    10    4   39 1
    11    5    6 ar
    12    5    8 1
    13    6    7 ar
    14    6   40 1
    15    7   41 1
    16    8    9 2
    17    8   10 am
    18   10   11 1
    19   10   42 1
    20   11   12 1
    21   11   13 1
    22   11   26 1
    23   13   18 1
    24   13   14 1
    25   13   43 1
    26   14   15 1
    27   14   44 1
    28   14   45 1
    29   15   16 1
    30   15   46 1
    31   15   47 1
    32   16   17 1
    33   16   19 am
    34   17   18 1
    35   17   48 1
    36   17   49 1
    37   18   50 1
    38   18   51 1
    39   19   20 2
    40   19   21 1
    41   21   22 1
    42   21   52 1
    43   21   53 1
    44   22   23 1
    45   22   24 1
    46   22   25 1
    47   23   54 1
    48   23   55 1
    49   23   56 1
    50   24   57 1
    51   24   58 1
    52   24   59 1
    53   25   60 1
    54   25   61 1
    55   25   62 1
    56   26   27 2
    57   26   28 am
    58   28   29 1
    59   28   63 1
    60   29   30 1
    61   29   64 1
    62   29   65 1
    63   30   34 1
    64   30   31 2
    65   31   32 1
    66   31   66 1
    67   32   33 2
    68   32   67 1
    69   33   34 1
    70   33   68 1
@<TRIPOS>MOLECULE
ZINC40404762
   55    58     0     0     0
SMALL
USER_CHARGES

@<TRIPOS>ATOM
      1 C1         -0.0027    1.1896   -0.2886 C.3       1 <0>        -0.1531
      2 C2         -0.0597   -0.3360   -0.1877 C.3       1 <0>         0.0624
      3 O1          0.6269   -0.7614    0.9912 O.3       1 <0>        -0.3500
      4 C3          0.6695   -2.0884    1.2298 C.2       1 <0>         0.5597
      5 O2          0.1376   -2.8626    0.4572 O.2       1 <0>        -0.4855
      6 C4          1.3560   -2.5967    2.4192 C.2       1 <0>        -0.2720
      7 C5          1.5107   -3.8908    2.8267 C.2       1 <0>         0.0618
      8 C6          2.2180   -4.1049    4.0154 C.2       1 <0>        -0.2841
      9 C7          2.5386   -5.3857    4.6932 C.2       1 <0>         0.5470
     10 O3          2.1731   -6.4474    4.2165 O.2       1 <0>        -0.4708
     11 N1          3.2372   -5.3576    5.8384 N.2       1 <0>        -0.5381
     12 C8          3.6456   -4.2438    6.3785 C.2       1 <0>         0.4401
     13 N2          3.3920   -3.0430    5.8212 N.pl3     1 <0>        -0.5777
     14 C9          2.6922   -2.9516    4.6590 C.2       1 <0>         0.0422
     15 S1          2.2041   -1.6811    3.6908 S.3       1 <0>         0.3096
     16 C10         4.4253   -4.3004    7.6669 C.3       1 <0>         0.0950
     17 N3          4.6927   -5.7020    8.0163 N.3       1 <0>        -0.4792
     18 C11         5.7659   -6.2571    7.1808 C.3       1 <0>         0.0396
     19 C12         5.8475   -7.7700    7.3942 C.3       1 <0>         0.1596
     20 H1          4.8978   -8.2277    7.1173 H         1 <0>         0.1197
     21 C13         6.9485   -8.3396    6.5372 C.ar      1 <0>        -0.1170
     22 C14         8.2516   -8.3432    6.9984 C.ar      1 <0>        -0.1134
     23 C15         9.2615   -8.8656    6.2122 C.ar      1 <0>        -0.1188
     24 C16         8.9682   -9.3848    4.9651 C.ar      1 <0>        -0.1194
     25 C17         7.6650   -9.3820    4.5043 C.ar      1 <0>        -0.1172
     26 C18         6.6544   -8.8635    5.2922 C.ar      1 <0>        -0.1052
     27 O4          6.1247   -8.0428    8.7693 O.3       1 <0>        -0.5396
     28 C19         5.0134   -5.8368    9.4435 C.3       1 <0>         0.0169
     29 C20         4.1491   -6.7868   10.2750 C.3       1 <0>        -0.1275
     30 C21         4.0079   -5.2734   10.4497 C.3       1 <0>        -0.1934
     31 C22         0.9441   -5.0386    2.0313 C.3       1 <0>        -0.1205
     32 H2          1.0374    1.5119   -0.3376 H         1 <0>         0.0676
     33 H3         -0.5264    1.5141   -1.1878 H         1 <0>         0.0827
     34 H4         -0.4786    1.6297    0.5878 H         1 <0>         0.0677
     35 H5         -1.0998   -0.6583   -0.1387 H         1 <0>         0.0718
     36 H6          0.4161   -0.7760   -1.0641 H         1 <0>         0.0717
     37 H7          5.3695   -3.7701    7.5438 H         1 <0>         0.0778
     38 H8          3.8464   -3.8317    8.4628 H         1 <0>         0.1207
     39 H9          5.5545   -6.0490    6.1320 H         1 <0>         0.0889
     40 H10         6.7156   -5.7994    7.4578 H         1 <0>         0.0375
     41 H11         8.4808   -7.9375    7.9727 H         1 <0>         0.1176
     42 H12        10.2798   -8.8678    6.5722 H         1 <0>         0.1222
     43 H13         9.7574   -9.7924    4.3506 H         1 <0>         0.1221
     44 H14         7.4359   -9.7874    3.5298 H         1 <0>         0.1235
     45 H15         5.6356   -8.8647    4.9338 H         1 <0>         0.1260
     46 H16         6.9568   -7.6649    9.0853 H         1 <0>         0.3631
     47 H17         6.0713   -5.7669    9.6963 H         1 <0>         0.0908
     48 H18         3.3426   -7.3118    9.7630 H         1 <0>         0.0995
     49 H19         4.6385   -7.3423   11.0750 H         1 <0>         0.0947
     50 H20         4.4043   -4.8333   11.3647 H         1 <0>         0.0954
     51 H21         3.1085   -4.8027   10.0527 H         1 <0>         0.0944
     52 H22         1.6840   -5.3787    1.3067 H         1 <0>         0.0851
     53 H23         0.6918   -5.8577    2.7047 H         1 <0>         0.0900
     54 H24         0.0468   -4.7095    1.5073 H         1 <0>         0.0912
     55 H25         3.7121   -2.2359    6.2536 H         1 <0>         0.4266
@<TRIPOS>BOND
     1    1    2 1
     2    1   32 1
     3    1   33 1
     4    1   34 1
     5    2    3 1
     6    2   35 1
     7    2   36 1
     8    3    4 1
     9    4    5 2
    10    4    6 1
    11    6   15 1
    12    6    7 2
    13    7    8 1
    14    7   31 1
    15    8   14 2
    16    8    9 1
    17    9   10 2
    18    9   11 1
    19   11   12 2
    20   12   13 1
    21   12   16 1
    22   13   14 1
    23   13   55 1
    24   14   15 1
    25   16   17 1
    26   16   37 1
    27   16   38 1
    28   17   18 1
    29   17   28 1
    30   18   19 1
    31   18   39 1
    32   18   40 1
    33   19   20 1
    34   19   21 1
    35   19   27 1
    36   21   26 ar
    37   21   22 ar
    38   22   23 ar
    39   22   41 1
    40   23   24 ar
    41   23   42 1
    42   24   25 ar
    43   24   43 1
    44   25   26 ar
    45   25   44 1
    46   26   45 1
    47   27   46 1
    48   28   30 1
    49   28   29 1
    50   28   47 1
    51   29   30 1
    52   29   48 1
    53   29   49 1
    54   30   50 1
    55   30   51 1
    56   31   52 1
    57   31   53 1
    58   31   54 1
@<TRIPOS>MOLECULE
ZINC66228845
   50    51     0     0     0
SMALL
USER_CHARGES

@<TRIPOS>ATOM
      1 C1          2.0274   -5.1171    3.7943 C.3       1 <0>        -0.1473
      2 C2          1.4338   -4.5881    2.4871 C.3       1 <0>        -0.0947
      3 C3          2.1957   -5.1854    1.3024 C.3       1 <0>        -0.1482
      4 C4         -0.0407   -4.9869    2.3985 C.3       1 <0>         0.0736
      5 O1         -0.6251   -4.3955    1.2363 O.3       1 <0>        -0.3558
      6 C5         -1.9238   -4.6489    1.0111 C.2       1 <0>         0.4546
      7 O2         -2.5440   -5.3497    1.7754 O.2       1 <0>        -0.4656
      8 C6         -2.6085   -4.0594   -0.1951 C.3       1 <0>        -0.1013
      9 C7         -4.0322   -4.6109   -0.2937 C.3       1 <0>         0.0799
     10 H1         -4.5406   -4.1508   -1.1410 H         1 <0>         0.0947
     11 C8         -3.9778   -6.0992   -0.4929 C.2       1 <0>         0.5372
     12 O3         -3.1618   -6.5523   -1.2673 O.2       1 <0>        -0.5506
     13 N1         -4.7912   -6.9451    0.1481 N.am      1 <0>        -0.7077
     14 C9         -5.7820   -6.5056    1.1264 C.3       1 <0>         0.1201
     15 C10        -6.0515   -5.0085    0.9633 C.3       1 <0>         0.0383
     16 N2         -4.7629   -4.2983    0.9417 N.3       1 <0>        -0.4947
     17 C11        -4.9603   -2.8496    1.0844 C.3       1 <0>         0.0269
     18 C12        -5.3427   -2.5324    2.5071 C.2       1 <0>         0.5171
     19 O4         -5.4410   -3.4253    3.3221 O.2       1 <0>        -0.4845
     20 N3         -5.5753   -1.2566    2.8740 N.am      1 <0>        -0.6741
     21 C13        -6.0285   -0.9716    4.1678 C.ar      1 <0>         0.1645
     22 C14        -5.6027   -1.7445    5.2399 C.ar      1 <0>        -0.0983
     23 C15        -6.0512   -1.4615    6.5151 C.ar      1 <0>        -0.0837
     24 C16        -6.9247   -0.4089    6.7256 C.ar      1 <0>        -0.0401
     25 C17        -7.3511    0.3634    5.6597 C.ar      1 <0>        -0.0830
     26 C18        -6.9007    0.0886    4.3821 C.ar      1 <0>        -0.0557
     27 Cl1        -7.4301    1.0621    3.0458 Cl        1 <0>        -0.0513
     28 Cl2        -7.4870   -0.0571    8.3299 Cl        1 <0>        -0.0544
     29 H2          3.0779   -4.8330    3.8574 H         1 <0>         0.0656
     30 H3          1.4846   -4.6916    4.6383 H         1 <0>         0.0579
     31 H4          1.9428   -6.2035    3.8184 H         1 <0>         0.0585
     32 H5          1.5184   -3.5017    2.4631 H         1 <0>         0.0806
     33 H6          1.7728   -4.8085    0.3712 H         1 <0>         0.0622
     34 H7          3.2462   -4.9013    1.3656 H         1 <0>         0.0579
     35 H8          2.1111   -6.2718    1.3265 H         1 <0>         0.0543
     36 H9         -0.1203   -6.0720    2.3331 H         1 <0>         0.0656
     37 H10        -0.5658   -4.6370    3.2873 H         1 <0>         0.0657
     38 H11        -2.6451   -2.9743   -0.0979 H         1 <0>         0.1129
     39 H12        -2.0528   -4.3251   -1.0943 H         1 <0>         0.1253
     40 H13        -4.7200   -7.8929   -0.0456 H         1 <0>         0.4031
     41 H14        -6.7092   -7.0584    0.9754 H         1 <0>         0.0811
     42 H15        -5.4077   -6.6982    2.1318 H         1 <0>         0.0825
     43 H16        -6.5831   -4.8325    0.0282 H         1 <0>         0.0462
     44 H17        -6.6519   -4.6519    1.8003 H         1 <0>         0.1045
     45 H18        -4.0357   -2.3304    0.8322 H         1 <0>         0.1118
     46 H19        -5.7549   -2.5234    0.4133 H         1 <0>         0.0800
     47 H20        -5.4288   -0.5357    2.2417 H         1 <0>         0.4142
     48 H21        -4.9216   -2.5665    5.0766 H         1 <0>         0.1606
     49 H22        -5.7201   -2.0626    7.3491 H         1 <0>         0.1449
     50 H23        -8.0331    1.1841    5.8266 H         1 <0>         0.1489
@<TRIPOS>BOND
     1    1    2 1
     2    1   29 1
     3    1   30 1
     4    1   31 1
     5    2    3 1
     6    2    4 1
     7    2   32 1
     8    3   33 1
     9    3   34 1
    10    3   35 1
    11    4    5 1
    12    4   36 1
    13    4   37 1
    14    5    6 1
    15    6    7 2
    16    6    8 1
    17    8    9 1
    18    8   38 1
    19    8   39 1
    20    9   10 1
    21    9   16 1
    22    9   11 1
    23   11   12 2
    24   11   13 am
    25   13   14 1
    26   13   40 1
    27   14   15 1
    28   14   41 1
    29   14   42 1
    30   15   16 1
    31   15   43 1
    32   15   44 1
    33   16   17 1
    34   17   18 1
    35   17   45 1
    36   17   46 1
    37   18   19 2
    38   18   20 am
    39   20   21 1
    40   20   47 1
    41   21   26 ar
    42   21   22 ar
    43   22   23 ar
    44   22   48 1
    45   23   24 ar
    46   23   49 1
    47   24   25 ar
    48   24   28 1
    49   25   26 ar
    50   25   50 1
    51   26   27 1
@<TRIPOS>MOLECULE
ZINC13089148
   43    44     0     0     0
SMALL
USER_CHARGES
4-[methyl-[(1S)-1-(4-sulfamoylphenyl)ethyl]sulfamoyl]benzoic acid
@<TRIPOS>ATOM
      1 C1         -1.2978   -1.4876    1.4663 C.3       1 <0>        -0.1545
      2 C2          0.0073   -0.7107    1.2816 C.3       1 <0>         0.1754
      3 H1          0.1123    0.0193    2.0841 H         1 <0>         0.1167
      4 C3          1.1709   -1.6677    1.3176 C.ar      1 <0>        -0.0385
      5 C4          1.3196   -2.6129    0.3199 C.ar      1 <0>        -0.1324
      6 C5          2.3896   -3.4876    0.3503 C.ar      1 <0>        -0.0184
      7 C6          3.3051   -3.4239    1.3841 C.ar      1 <0>        -0.6733
      8 C7          3.1535   -2.4821    2.3846 C.ar      1 <0>        -0.0119
      9 C8          2.0864   -1.6040    2.3513 C.ar      1 <0>        -0.1292
     10 S1          4.6650   -4.5435    1.4268 S.o2      1 <0>         2.6971
     11 O1          4.8843   -4.9674    0.0884 O.2       1 <0>        -0.9622
     12 O2          5.6787   -3.9218    2.2048 O.2       1 <0>        -0.9572
     13 N1          4.1726   -5.8799    2.2719 N.pl3     1 <0>        -1.2510
     14 N2         -0.0153   -0.0179   -0.0090 N.pl3     1 <0>        -0.9940
     15 C9         -0.2802   -0.7685   -1.2389 C.3       1 <0>         0.0702
     16 S2          0.2584    1.6139   -0.0777 S.o2      1 <0>         2.6930
     17 O3         -0.3552    2.0788   -1.2721 O.2       1 <0>        -0.9576
     18 O4         -0.0730    2.1355    1.2019 O.2       1 <0>        -0.9593
     19 C10         1.9936    1.8429   -0.2809 C.ar      1 <0>        -0.6851
     20 C11         2.8070    1.9655    0.8317 C.ar      1 <0>        -0.0387
     21 C12         4.1669    2.1401    0.6800 C.ar      1 <0>        -0.0987
     22 C13         4.7208    2.2038   -0.6002 C.ar      1 <0>        -0.0505
     23 C14         3.8934    2.0847   -1.7187 C.ar      1 <0>        -0.1084
     24 C15         2.5359    1.9051   -1.5524 C.ar      1 <0>        -0.0375
     25 C16         6.1756    2.3958   -0.7706 C.2       1 <0>         0.4824
     26 O5          6.6545    2.4504   -1.8855 O.co2     1 <0>        -0.6206
     27 H2         -1.2810   -2.0031    2.4266 H         1 <0>         0.0730
     28 H3         -2.1394   -0.7954    1.4403 H         1 <0>         0.0705
     29 H4         -1.4028   -2.2176    0.6638 H         1 <0>         0.0664
     30 H5          0.6018   -2.6656   -0.4854 H         1 <0>         0.1402
     31 H6          2.5079   -4.2236   -0.4311 H         1 <0>         0.1426
     32 H7          3.8686   -2.4326    3.1925 H         1 <0>         0.1457
     33 H8          1.9678   -0.8685    3.1332 H         1 <0>         0.1383
     34 H9          3.2724   -5.9223    2.6307 H         1 <0>         0.4153
     35 H10         4.7844   -6.6202    2.4080 H         1 <0>         0.4196
     36 H11         0.6521   -1.1893   -1.6157 H         1 <0>         0.0621
     37 H12        -0.9835   -1.5742   -1.0285 H         1 <0>         0.0801
     38 H13        -0.7062   -0.1007   -1.9876 H         1 <0>         0.0897
     39 H14         2.3768    1.9202    1.8213 H         1 <0>         0.1311
     40 H15         4.8013    2.2312    1.5493 H         1 <0>         0.1410
     41 H16         4.3154    2.1327   -2.7116 H         1 <0>         0.1373
     42 H17         1.8948    1.8125   -2.4166 H         1 <0>         0.1327
     43 O6          6.9710    2.5104    0.3106 O.co2     1 <0>        -0.7415
@<TRIPOS>BOND
     1    1    2 1
     2    1   27 1
     3    1   28 1
     4    1   29 1
     5    2    3 1
     6    2    4 1
     7    2   14 1
     8    4    9 ar
     9    4    5 ar
    10    5    6 ar
    11    5   30 1
    12    6    7 ar
    13    6   31 1
    14    7    8 ar
    15    7   10 1
    16    8    9 ar
    17    8   32 1
    18    9   33 1
    19   10   11 2
    20   10   12 2
    21   10   13 1
    22   13   34 1
    23   13   35 1
    24   14   15 1
    25   14   16 1
    26   15   36 1
    27   15   37 1
    28   15   38 1
    29   16   17 2
    30   16   18 2
    31   16   19 1
    32   19   24 ar
    33   19   20 ar
    34   20   21 ar
    35   20   39 1
    36   21   22 ar
    37   21   40 1
    38   22   23 ar
    39   22   25 1
    40   23   24 ar
    41   23   41 1
    42   24   42 1
    43   25   26 2
    44   25   43 1
@<TRIPOS>MOLECULE
ZINC13302177
   44    46     0     0     0
SMALL
USER_CHARGES
5-[[2-[[(2R)-tetrahydrofuran-2-yl]methylcarbamoyl]phenyl]sulfamoyl]thiophene-3-carboxylic acid
@<TRIPOS>ATOM
      1 C1         -4.7062    0.3697    1.9884 C.ar      1 <0>        -0.1469
      2 C2         -3.7067   -0.4527    1.4925 C.ar      1 <0>        -0.0555
      3 C3         -2.4362    0.0415    1.2810 C.ar      1 <0>        -0.1837
      4 C4         -2.1503    1.3713    1.5650 C.ar      1 <0>         0.2273
      5 C5         -3.1588    2.2052    2.0722 C.ar      1 <0>        -0.1662
      6 C6         -4.4419    1.6907    2.2758 C.ar      1 <0>        -0.0609
      7 C7         -2.8677    3.6167    2.3829 C.2       1 <0>         0.5645
      8 O1         -1.7509    4.0617    2.2000 O.2       1 <0>        -0.5355
      9 N1         -3.8393    4.4138    2.8698 N.am      1 <0>        -0.7198
     10 C8         -3.5500    5.8164    3.1786 C.3       1 <0>         0.1207
     11 C9         -4.8145    6.4924    3.7123 C.3       1 <0>         0.0641
     12 H1         -5.1612    5.9758    4.6074 H         1 <0>         0.0754
     13 C10        -4.5206    7.9691    4.0404 C.3       1 <0>        -0.1491
     14 C11        -5.5176    8.7594    3.1584 C.3       1 <0>        -0.1564
     15 C12        -6.6006    7.6925    2.8566 C.3       1 <0>         0.0463
     16 O2         -5.8405    6.4743    2.7057 O.3       1 <0>        -0.3695
     17 N2         -0.8720    1.8711    1.3534 N.pl3     1 <0>        -1.0392
     18 S1          0.0240    1.3359    0.0677 S.o2      1 <0>         2.7305
     19 O3          0.0516   -0.0822    0.1542 O.2       1 <0>        -0.9492
     20 O4          1.2083    2.1209    0.0432 O.2       1 <0>        -0.9413
     21 C13        -0.8743    1.7339   -1.3950 C.2       1 <0>        -0.8013
     22 C14        -0.8152    2.8585   -2.1342 C.2       1 <0>         0.0572
     23 C15        -1.6636    2.9240   -3.2981 C.2       1 <0>        -0.1933
     24 C16        -2.4710    1.8326   -3.5476 C.2       1 <0>        -0.1117
     25 S2         -2.0870    0.7503   -2.2517 S.3       1 <0>         0.1647
     26 C17        -1.6730    4.1032   -4.1764 C.2       1 <0>         0.5056
     27 O5         -0.9508    5.0497   -3.9308 O.co2     1 <0>        -0.6264
     28 H2         -5.6975   -0.0272    2.1499 H         1 <0>         0.1310
     29 H3         -3.9241   -1.4869    1.2700 H         1 <0>         0.1356
     30 H4         -1.6628   -0.6060    0.8947 H         1 <0>         0.1686
     31 H5         -5.2246    2.3270    2.6616 H         1 <0>         0.1285
     32 H6         -4.7301    4.0588    3.0158 H         1 <0>         0.4035
     33 H7         -2.7646    5.8679    3.9327 H         1 <0>         0.0825
     34 H8         -3.2193    6.3268    2.2741 H         1 <0>         0.0794
     35 H9         -4.7037    8.1691    5.0961 H         1 <0>         0.0797
     36 H10        -3.4939    8.2217    3.7757 H         1 <0>         0.0844
     37 H11        -5.9419    9.5997    3.7081 H         1 <0>         0.0812
     38 H12        -5.0393    9.0996    2.2399 H         1 <0>         0.0809
     39 H13        -7.2991    7.6084    3.6891 H         1 <0>         0.0608
     40 H14        -7.1288    7.9321    1.9337 H         1 <0>         0.0950
     41 H15        -0.5040    2.5337    1.9587 H         1 <0>         0.4388
     42 H16        -0.1589    3.6740   -1.8684 H         1 <0>         0.1536
     43 H17        -3.1726    1.6884   -4.3560 H         1 <0>         0.1981
     44 O6         -2.4823    4.1346   -5.2539 O.co2     1 <0>        -0.7521
@<TRIPOS>BOND
     1    1    6 ar
     2    1    2 ar
     3    1   28 1
     4    2    3 ar
     5    2   29 1
     6    3    4 ar
     7    3   30 1
     8    4    5 ar
     9    4   17 1
    10    5    6 ar
    11    5    7 1
    12    6   31 1
    13    7    8 2
    14    7    9 am
    15    9   10 1
    16    9   32 1
    17   10   11 1
    18   10   33 1
    19   10   34 1
    20   11   12 1
    21   11   16 1
    22   11   13 1
    23   13   14 1
    24   13   35 1
    25   13   36 1
    26   14   15 1
    27   14   37 1
    28   14   38 1
    29   15   16 1
    30   15   39 1
    31   15   40 1
    32   17   18 1
    33   17   41 1
    34   18   19 2
    35   18   20 2
    36   18   21 1
    37   21   25 1
    38   21   22 2
    39   22   23 1
    40   22   42 1
    41   23   24 2
    42   23   26 1
    43   24   25 1
    44   24   43 1
    45   26   27 2
    46   26   44 1
@<TRIPOS>MOLECULE
ZINC40053293
   51    54     0     0     0
SMALL
USER_CHARGES

@<TRIPOS>ATOM
      1 C1         -5.5578   -3.3147   -3.2807 C.3       1 <0>         0.0274
      2 O1         -4.3887   -3.7738   -2.5993 O.3       1 <0>        -0.3096
      3 C2         -3.2674   -3.9507   -3.3478 C.ar      1 <0>         0.1455
      4 C3         -3.2895   -3.6836   -4.7045 C.ar      1 <0>        -0.1954
      5 C4         -2.1521   -3.8605   -5.4798 C.ar      1 <0>        -0.1016
      6 C5         -0.9895   -4.3024   -4.9145 C.ar      1 <0>        -0.1045
      7 C6         -0.9438   -4.5784   -3.5444 C.ar      1 <0>        -0.0981
      8 C7         -2.0900   -4.3966   -2.7492 C.ar      1 <0>         0.0336
      9 O2         -1.7656   -4.7263   -1.4830 O.3       1 <0>        -0.1522
     10 C8         -0.4741   -5.1073   -1.4020 C.2       1 <0>         0.0071
     11 C9          0.0984   -5.0516   -2.6357 C.2       1 <0>        -0.1647
     12 C10         0.2072   -5.5313   -0.1715 C.2       1 <0>         0.5391
     13 O3          1.3462   -5.9600   -0.2228 O.2       1 <0>        -0.4444
     14 C11        -0.4841   -5.4385    1.1190 C.2       1 <0>        -0.5013
     15 C12        -0.8364   -6.4692    1.9219 C.2       1 <0>         0.2720
     16 C13        -1.5112   -5.9397    3.1243 C.2       1 <0>         0.5144
     17 O4         -1.9458   -6.6166    4.0350 O.2       1 <0>        -0.5317
     18 N1         -1.5737   -4.5971    3.0624 N.am      1 <0>        -0.6088
     19 C14        -0.9343   -4.1732    1.8112 C.3       1 <0>         0.2643
     20 H1         -1.6519   -3.6398    1.1878 H         1 <0>         0.0754
     21 C15         0.2530   -3.2927    2.1051 C.ar      1 <0>        -0.0583
     22 C16         1.1509   -3.6511    3.0939 C.ar      1 <0>        -0.0906
     23 C17         2.2410   -2.8456    3.3659 C.ar      1 <0>        -0.1053
     24 C18         2.4357   -1.6798    2.6504 C.ar      1 <0>        -0.1500
     25 C19         1.5365   -1.3181    1.6581 C.ar      1 <0>         0.0959
     26 C20         0.4465   -2.1314    1.3829 C.ar      1 <0>        -0.1393
     27 O5          1.7258   -0.1720    0.9529 O.3       1 <0>        -0.5023
     28 C21        -2.1699   -3.7145    4.0682 C.3       1 <0>         0.1422
     29 C22        -1.1055   -3.3164    5.0927 C.3       1 <0>        -0.1479
     30 C23        -1.7281   -2.3946    6.1431 C.3       1 <0>         0.0814
     31 O6         -0.7340   -2.0228    7.0999 O.3       1 <0>        -0.5722
     32 O7         -0.6075   -7.7780    1.6637 O.3       1 <0>        -0.6475
     33 H2         -5.3551   -2.3462   -3.7380 H         1 <0>         0.0556
     34 H3         -5.8323   -4.0316   -4.0546 H         1 <0>         0.0559
     35 H4         -6.3778   -3.2161   -2.5694 H         1 <0>         0.1007
     36 H5         -4.2014   -3.3340   -5.1655 H         1 <0>         0.1370
     37 H6         -2.1865   -3.6476   -6.5381 H         1 <0>         0.1295
     38 H7         -0.1084   -4.4385   -5.5241 H         1 <0>         0.1290
     39 H8          1.1194   -5.2958   -2.8894 H         1 <0>         0.1671
     40 H9          1.0001   -4.5617    3.6548 H         1 <0>         0.1209
     41 H10         2.9408   -3.1277    4.1386 H         1 <0>         0.1229
     42 H11         3.2871   -1.0505    2.8638 H         1 <0>         0.1217
     43 H12        -0.2525   -1.8544    0.6075 H         1 <0>         0.1238
     44 H13         2.2583   -0.2853    0.1537 H         1 <0>         0.3852
     45 H14        -2.5586   -2.8198    3.5819 H         1 <0>         0.0762
     46 H15        -2.9830   -4.2360    4.5731 H         1 <0>         0.0803
     47 H16        -0.7167   -4.2111    5.5790 H         1 <0>         0.0733
     48 H17        -0.2923   -2.7949    4.5878 H         1 <0>         0.0832
     49 H18        -2.1169   -1.4999    5.6567 H         1 <0>         0.0445
     50 H19        -2.5413   -2.9161    6.6480 H         1 <0>         0.0451
     51 H20        -1.0590   -1.4372    7.7974 H         1 <0>         0.3753
@<TRIPOS>BOND
     1    1    2 1
     2    1   33 1
     3    1   34 1
     4    1   35 1
     5    2    3 1
     6    3    8 ar
     7    3    4 ar
     8    4    5 ar
     9    4   36 1
    10    5    6 ar
    11    5   37 1
    12    6    7 ar
    13    6   38 1
    14    7   11 1
    15    7    8 ar
    16    8    9 1
    17    9   10 1
    18   10   11 2
    19   10   12 1
    20   11   39 1
    21   12   13 2
    22   12   14 1
    23   14   19 1
    24   14   15 2
    25   15   16 1
    26   15   32 1
    27   16   17 2
    28   16   18 am
    29   18   19 1
    30   18   28 1
    31   19   20 1
    32   19   21 1
    33   21   26 ar
    34   21   22 ar
    35   22   23 ar
    36   22   40 1
    37   23   24 ar
    38   23   41 1
    39   24   25 ar
    40   24   42 1
    41   25   26 ar
    42   25   27 1
    43   26   43 1
    44   27   44 1
    45   28   29 1
    46   28   45 1
    47   28   46 1
    48   29   30 1
    49   29   47 1
    50   29   48 1
    51   30   31 1
    52   30   49 1
    53   30   50 1
    54   31   51 1
@<TRIPOS>MOLECULE
ZINC26260246
   39    40     0     0     0
SMALL
USER_CHARGES

@<TRIPOS>ATOM
      1 C1         -0.5219    1.7518    0.5863 C.3       1 <0>        -0.1226
      2 S1         -0.4090   -0.0564    0.4944 S.3       1 <0>        -0.2618
      3 C2          0.6389   -0.5030    1.9061 C.3       1 <0>        -0.0858
      4 C3          0.8182   -2.0219    1.9477 C.3       1 <0>        -0.0954
      5 C4          1.7840   -2.3907    3.0757 C.3       1 <0>         0.2000
      6 H1          1.4295   -1.9608    4.0125 H         1 <0>         0.0922
      7 C5          1.8548   -3.8903    3.2061 C.2       1 <0>         0.4148
      8 O1          2.8314   -4.5755    2.5805 O.3       1 <0>        -0.6512
      9 N1          0.9718   -4.5239    3.9236 N.2       1 <0>        -0.6630
     10 C6          1.0359   -5.8808    4.0417 C.2       1 <0>         0.5205
     11 N2          1.9363   -6.6691    3.4845 N.2       1 <0>        -0.5602
     12 H2         -0.5716   -6.3668    5.2790 H         1 <0>         0.4227
     13 C7          1.6909   -7.9348    3.8158 C.2       1 <0>         0.1910
     14 N3          0.6361   -7.9820    4.5862 N.2       1 <0>        -0.3797
     15 N4          0.1907   -6.6611    4.7564 N.pl3     1 <0>        -0.5179
     16 N5          3.1162   -1.8637    2.7697 N.pl3     1 <0>        -1.0824
     17 S2          4.0971   -1.3313    3.9932 S.o2      1 <0>         2.6874
     18 O2          4.0764   -2.3368    4.9970 O.2       1 <0>        -0.9313
     19 O3          5.3018   -0.8876    3.3840 O.2       1 <0>        -0.9452
     20 C8          3.3317    0.0937    4.6919 C.ar      1 <0>        -0.6617
     21 C9          2.8654    0.0599    5.9926 C.ar      1 <0>         0.0031
     22 C10         2.2644    1.1786    6.5412 C.ar      1 <0>        -0.0526
     23 C11         2.1300    2.3315    5.7878 C.ar      1 <0>        -0.0479
     24 C12         2.5962    2.3652    4.4874 C.ar      1 <0>        -0.1187
     25 C13         3.2025    1.2480    3.9406 C.ar      1 <0>         0.0538
     26 Cl1         3.7946    1.2927    2.3093 Cl        1 <0>        -0.0292
     27 Cl2         1.6782    1.1361    8.1747 Cl        1 <0>        -0.0492
     28 H3          0.4764    2.1825    0.5092 H         1 <0>         0.0739
     29 H4         -1.1404    2.1193   -0.2325 H         1 <0>         0.0987
     30 H5         -0.9695    2.0400    1.5375 H         1 <0>         0.0734
     31 H6          1.6128   -0.0249    1.8012 H         1 <0>         0.0834
     32 H7          0.1669   -0.1674    2.8295 H         1 <0>         0.0798
     33 H8         -0.1466   -2.4969    2.1256 H         1 <0>         0.0950
     34 H9          1.2228   -2.3662    0.9960 H         1 <0>         0.0850
     35 H10         2.2716   -8.7882    3.4979 H         1 <0>         0.1914
     36 H11         3.4238   -1.8266    1.8505 H         1 <0>         0.4222
     37 H12         2.9699   -0.8400    6.5806 H         1 <0>         0.1655
     38 H13         1.6605    3.2048    6.2159 H         1 <0>         0.1506
     39 H14         2.4910    3.2649    3.8992 H         1 <0>         0.1514
@<TRIPOS>BOND
     1    1    2 1
     2    1   28 1
     3    1   29 1
     4    1   30 1
     5    2    3 1
     6    3    4 1
     7    3   31 1
     8    3   32 1
     9    4    5 1
    10    4   33 1
    11    4   34 1
    12    5    6 1
    13    5    7 1
    14    5   16 1
    15    7    8 1
    16    7    9 2
    17    9   10 1
    18   10   11 2
    19   10   15 1
    20   11   13 1
    21   12   15 1
    22   13   35 1
    23   13   14 2
    24   14   15 1
    25   16   17 1
    26   16   36 1
    27   17   18 2
    28   17   19 2
    29   17   20 1
    30   20   25 ar
    31   20   21 ar
    32   21   22 ar
    33   21   37 1
    34   22   23 ar
    35   22   27 1
    36   23   24 ar
    37   23   38 1
    38   24   25 ar
    39   24   39 1
    40   25   26 1
@<TRIPOS>MOLECULE
ZINC67004775
   46    48     0     0     0
SMALL
USER_CHARGES

@<TRIPOS>ATOM
      1 C1         -1.9042   -3.0754   -0.7489 C.3       1 <0>        -0.1390
      2 C2         -0.8374   -2.0583   -0.3389 C.3       1 <0>        -0.1411
      3 C3         -0.1145   -2.5550    0.8866 C.2       1 <0>         0.5070
      4 O1         -0.4223   -3.6178    1.3832 O.2       1 <0>        -0.5136
      5 N1          0.8741   -1.8180    1.4308 N.am      1 <0>        -0.6764
      6 C4          1.4797   -2.2311    2.6227 C.ar      1 <0>         0.1736
      7 C5          1.8963   -1.2892    3.5543 C.ar      1 <0>        -0.1696
      8 C6          2.4938   -1.7001    4.7297 C.ar      1 <0>        -0.0057
      9 C7          2.6774   -3.0478    4.9794 C.ar      1 <0>        -0.6259
     10 C8          2.2640   -3.9881    4.0536 C.ar      1 <0>        -0.0056
     11 C9          1.6603   -3.5839    2.8790 C.ar      1 <0>        -0.1452
     12 S1          3.4400   -3.5679    6.4803 S.o2      1 <0>         2.6021
     13 O2          3.9899   -4.8544    6.2318 O.2       1 <0>        -1.0268
     14 O3          4.2291   -2.4768    6.9342 O.2       1 <0>        -1.0279
     15 N2          2.2340   -3.7761    7.5958 N.2       1 <0>        -1.0820
     16 C10         2.5467   -4.1913    8.8950 C.ar      1 <0>         0.2182
     17 C11         1.5378   -4.3749    9.8394 C.ar      1 <0>        -0.1247
     18 C12         1.8931   -4.7866   11.1110 C.ar      1 <0>        -0.1503
     19 C13         3.2350   -5.0022   11.4034 C.ar      1 <0>         0.2324
     20 N3          4.1665   -4.8176   10.4824 N.ar      1 <0>        -0.4273
     21 C14         3.8639   -4.4310    9.2578 C.ar      1 <0>        -0.0205
     22 N4          3.6039   -5.4179   12.6844 N.am      1 <0>        -0.6516
     23 C15         4.9077   -5.5310   13.0067 C.2       1 <0>         0.5227
     24 O4          5.7588   -5.3610   12.1596 O.2       1 <0>        -0.4824
     25 C16         5.3079   -5.8687   14.4198 C.3       1 <0>        -0.1901
     26 C17         6.0088   -4.7800   15.2349 C.3       1 <0>        -0.1552
     27 C18         6.8033   -5.9829   14.7224 C.3       1 <0>        -0.1499
     28 H1         -2.6165   -3.2034    0.0662 H         1 <0>         0.0635
     29 H2         -2.4271   -2.7162   -1.6353 H         1 <0>         0.0624
     30 H3         -1.4292   -4.0313   -0.9697 H         1 <0>         0.0630
     31 H4         -0.1251   -1.9303   -1.1540 H         1 <0>         0.0955
     32 H5         -1.3124   -1.1025   -0.1181 H         1 <0>         0.0961
     33 H6          1.1658   -1.0014    0.9962 H         1 <0>         0.4108
     34 H7          1.7536   -0.2365    3.3597 H         1 <0>         0.1289
     35 H8          2.8183   -0.9681    5.4545 H         1 <0>         0.1412
     36 H9          2.4091   -5.0399    4.2514 H         1 <0>         0.1404
     37 H10         1.3331   -4.3190    2.1586 H         1 <0>         0.1416
     38 H11         0.5032   -4.1995    9.5841 H         1 <0>         0.1282
     39 H12         1.1375   -4.9384   11.8676 H         1 <0>         0.1186
     40 H13         4.6511   -4.2951    8.5310 H         1 <0>         0.1295
     41 H14         2.9219   -5.6253   13.3422 H         1 <0>         0.4067
     42 H15         4.6341   -6.5406   14.9514 H         1 <0>         0.1202
     43 H16         6.1805   -3.8195   14.7490 H         1 <0>         0.0991
     44 H17         5.7962   -4.7354   16.3030 H         1 <0>         0.1010
     45 H18         7.1133   -6.7297   15.4533 H         1 <0>         0.0998
     46 H19         7.4977   -5.8138   13.8993 H         1 <0>         0.1082
@<TRIPOS>BOND
     1    1    2 1
     2    1   28 1
     3    1   29 1
     4    1   30 1
     5    2    3 1
     6    2   31 1
     7    2   32 1
     8    3    4 2
     9    3    5 am
    10    5    6 1
    11    5   33 1
    12    6   11 ar
    13    6    7 ar
    14    7    8 ar
    15    7   34 1
    16    8    9 ar
    17    8   35 1
    18    9   10 ar
    19    9   12 1
    20   10   11 ar
    21   10   36 1
    22   11   37 1
    23   12   13 2
    24   12   14 2
    25   12   15 1
    26   15   16 1
    27   16   21 ar
    28   16   17 ar
    29   17   18 ar
    30   17   38 1
    31   18   19 ar
    32   18   39 1
    33   19   20 ar
    34   19   22 1
    35   20   21 ar
    36   21   40 1
    37   22   23 am
    38   22   41 1
    39   23   24 2
    40   23   25 1
    41   25   27 1
    42   25   26 1
    43   25   42 1
    44   26   27 1
    45   26   43 1
    46   26   44 1
    47   27   45 1
    48   27   46 1
@<TRIPOS>MOLECULE
ZINC13641097
   60    63     0     0     0
SMALL
USER_CHARGES
(3aS,4S,9bS)-N-allyl-4-(3,4,5-trimethoxyphenyl)-3a,4,5,9b-tetrahydro-3H-cyclopenta[c]quinoline-8-sulfonamide
@<TRIPOS>ATOM
      1 C1          9.6755    6.1438    5.7879 C.3       1 <0>         0.0234
      2 O1          9.9958    4.8967    6.4078 O.3       1 <0>        -0.3001
      3 C2          9.0832    3.8955    6.2884 C.ar      1 <0>         0.1544
      4 C3          7.9049    4.1098    5.5894 C.ar      1 <0>        -0.2188
      5 C4          6.9767    3.0927    5.4676 C.ar      1 <0>        -0.0224
      6 C5          7.2159    1.8606    6.0466 C.ar      1 <0>        -0.2213
      7 C6          8.3940    1.6366    6.7428 C.ar      1 <0>         0.1535
      8 C7          9.3300    2.6563    6.8673 C.ar      1 <0>         0.0327
      9 O2         10.4854    2.4419    7.5537 O.3       1 <0>        -0.3126
     10 C8         10.4710    2.7282    8.9537 C.3       1 <0>         0.0355
     11 O3          8.6307    0.4223    7.3078 O.3       1 <0>        -0.3000
     12 C9          7.6248   -0.5786    7.1396 C.3       1 <0>         0.0244
     13 C10         5.6977    3.3299    4.7066 C.3       1 <0>         0.2061
     14 H1          5.8184    4.1641    4.0156 H         1 <0>         0.0898
     15 C11         4.5579    3.6077    5.6703 C.3       1 <0>        -0.1026
     16 H2          4.3620    2.7624    6.3300 H         1 <0>         0.0970
     17 C12         4.6056    4.9301    6.4477 C.3       1 <0>        -0.0862
     18 C13         3.1179    5.2149    6.6624 C.2       1 <0>        -0.1626
     19 C14         2.4016    4.6290    5.7104 C.2       1 <0>        -0.1509
     20 C15         3.3284    3.9431    4.7742 C.3       1 <0>        -0.0270
     21 H3          3.6672    4.6740    4.0399 H         1 <0>         0.0846
     22 C16         2.9425    2.7121    4.0515 C.ar      1 <0>        -0.1582
     23 C17         1.6317    2.4103    3.7517 C.ar      1 <0>         0.0330
     24 C18         1.3229    1.2560    3.0560 C.ar      1 <0>        -0.7289
     25 C19         2.3322    0.3980    2.6584 C.ar      1 <0>         0.0253
     26 C20         3.6478    0.6928    2.9509 C.ar      1 <0>        -0.2136
     27 C21         3.9683    1.8456    3.6578 C.ar      1 <0>         0.2750
     28 N1          5.3077    2.1081    3.9695 N.pl3     1 <0>        -0.7341
     29 S1         -0.3563    0.8747    2.6823 S.o2      1 <0>         2.6979
     30 O4         -1.1510    1.5568    3.6427 O.2       1 <0>        -0.9616
     31 O5         -0.4222   -0.5331    2.5004 O.2       1 <0>        -0.9603
     32 N2         -0.6984    1.5583    1.2133 N.pl3     1 <0>        -1.1164
     33 C22        -0.0127    1.0858    0.0080 C.3       1 <0>         0.1437
     34 C23        -0.7416    1.5850   -1.2129 C.2       1 <0>        -0.1697
     35 C24        -0.0979    2.2692   -2.1259 C.2       1 <0>        -0.1676
     36 H4          9.5438    5.9937    4.7163 H         1 <0>         0.0588
     37 H5          8.7529    6.5359    6.2159 H         1 <0>         0.0583
     38 H6         10.4853    6.8530    5.9587 H         1 <0>         0.1050
     39 H7          7.7123    5.0724    5.1394 H         1 <0>         0.1376
     40 H8          6.4862    1.0699    5.9529 H         1 <0>         0.1369
     41 H9         10.2302    3.7801    9.1069 H         1 <0>         0.0450
     42 H10         9.7200    2.1084    9.4435 H         1 <0>         0.0447
     43 H11        11.4518    2.5143    9.3784 H         1 <0>         0.0943
     44 H12         7.9384   -1.4961    7.6376 H         1 <0>         0.1056
     45 H13         6.6888   -0.2300    7.5760 H         1 <0>         0.0573
     46 H14         7.4800   -0.7733    6.0770 H         1 <0>         0.0577
     47 H15         5.0720    5.7159    5.8536 H         1 <0>         0.0815
     48 H16         5.1209    4.8055    7.4002 H         1 <0>         0.0759
     49 H17         2.7103    5.8052    7.4698 H         1 <0>         0.1325
     50 H18         1.3247    4.6480    5.6302 H         1 <0>         0.1351
     51 H19         0.8418    3.0783    4.0620 H         1 <0>         0.1377
     52 H20         2.0902   -0.5026    2.1137 H         1 <0>         0.1392
     53 H21         4.4322    0.0219    2.6331 H         1 <0>         0.1304
     54 H22         5.9925    1.4774    3.6971 H         1 <0>         0.4054
     55 H23        -1.3529    2.2715    1.1509 H         1 <0>         0.4194
     56 H24         0.0021   -0.0041    0.0020 H         1 <0>         0.0888
     57 H25         1.0099    1.4631    0.0003 H         1 <0>         0.0696
     58 H26        -1.7946    1.3787   -1.3351 H         1 <0>         0.1181
     59 H27         0.9552    2.4755   -2.0037 H         1 <0>         0.0998
     60 H28        -0.6202    2.6270   -3.0009 H         1 <0>         0.1041
@<TRIPOS>BOND
     1    1    2 1
     2    1   36 1
     3    1   37 1
     4    1   38 1
     5    2    3 1
     6    3    8 ar
     7    3    4 ar
     8    4    5 ar
     9    4   39 1
    10    5    6 ar
    11    5   13 1
    12    6    7 ar
    13    6   40 1
    14    7    8 ar
    15    7   11 1
    16    8    9 1
    17    9   10 1
    18   10   41 1
    19   10   42 1
    20   10   43 1
    21   11   12 1
    22   12   44 1
    23   12   45 1
    24   12   46 1
    25   13   14 1
    26   13   28 1
    27   13   15 1
    28   15   16 1
    29   15   20 1
    30   15   17 1
    31   17   18 1
    32   17   47 1
    33   17   48 1
    34   18   19 2
    35   18   49 1
    36   19   20 1
    37   19   50 1
    38   20   21 1
    39   20   22 1
    40   22   27 ar
    41   22   23 ar
    42   23   24 ar
    43   23   51 1
    44   24   25 ar
    45   24   29 1
    46   25   26 ar
    47   25   52 1
    48   26   27 ar
    49   26   53 1
    50   27   28 1
    51   28   54 1
    52   29   30 2
    53   29   31 2
    54   29   32 1
    55   32   33 1
    56   32   55 1
    57   33   34 1
    58   33   56 1
    59   33   57 1
    60   34   35 2
    61   34   58 1
    62   35   59 1
    63   35   60 1
@<TRIPOS>MOLECULE
ZINC16773213
   49    50     0     0     0
SMALL
USER_CHARGES
[(1R)-2-[(3-fluoro-4-methyl-phenyl)amino]-1-methyl-2-oxo-ethyl] (2S)-2-[(4-chlorophenyl)sulfonylamino]propanoate
@<TRIPOS>ATOM
      1 C1          5.7675    3.7210  -10.6481 C.3       1 <0>        -0.1153
      2 C2          4.9534    2.6484   -9.9713 C.ar      1 <0>        -0.1297
      3 C3          3.5793    2.6258  -10.1233 C.ar      1 <0>        -0.0729
      4 C4          2.8309    1.6410   -9.5091 C.ar      1 <0>        -0.1474
      5 C5          3.4576    0.6786   -8.7277 C.ar      1 <0>         0.1642
      6 C6          4.8371    0.7024   -8.5754 C.ar      1 <0>        -0.1531
      7 C7          5.5829    1.6875   -9.1978 C.ar      1 <0>         0.1169
      8 F1          6.9257    1.7123   -9.0507 F         1 <0>        -0.1322
      9 N1          2.7003   -0.3166   -8.1001 N.am      1 <0>        -0.6665
     10 C8          3.0665   -0.7783   -6.8880 C.2       1 <0>         0.5175
     11 O1          4.0973   -0.3927   -6.3783 O.2       1 <0>        -0.4892
     12 C9          2.1952   -1.7736   -6.1660 C.3       1 <0>         0.0728
     13 H1          1.1856   -1.3732   -6.0740 H         1 <0>         0.1179
     14 C10         2.1545   -3.0832   -6.9561 C.3       1 <0>        -0.1691
     15 O2          2.7393   -2.0232   -4.8432 O.3       1 <0>        -0.3209
     16 C11         1.8659   -2.3426   -3.8753 C.2       1 <0>         0.4618
     17 O3          0.6857   -2.4114   -4.1252 O.2       1 <0>        -0.4905
     18 C12         2.3571   -2.6154   -2.4770 C.3       1 <0>         0.1677
     19 H2          2.8656   -1.7316   -2.0916 H         1 <0>         0.1239
     20 C13         3.3313   -3.7950   -2.4997 C.3       1 <0>        -0.1719
     21 N2          1.2185   -2.9390   -1.6138 N.pl3     1 <0>        -1.1017
     22 S1          1.2182   -2.4589   -0.0289 S.o2      1 <0>         2.6974
     23 O4          2.4747   -2.8435    0.5121 O.2       1 <0>        -0.9411
     24 O5         -0.0155   -2.8930    0.5267 O.2       1 <0>        -0.9429
     25 C14         1.1833   -0.6973   -0.0182 C.ar      1 <0>        -0.6844
     26 C15        -0.0276   -0.0303   -0.0069 C.ar      1 <0>        -0.0018
     27 C16        -0.0556    1.3515    0.0019 C.ar      1 <0>        -0.1308
     28 C17         1.1284    2.0672   -0.0009 C.ar      1 <0>         0.0197
     29 C18         2.3398    1.3992   -0.0130 C.ar      1 <0>        -0.1297
     30 C19         2.3666    0.0173   -0.0214 C.ar      1 <0>        -0.0124
     31 Cl1         1.0939    3.8029    0.0097 Cl        1 <0>        -0.0493
     32 H3          6.0655    3.3797  -11.6395 H         1 <0>         0.0755
     33 H4          5.1690    4.6273  -10.7406 H         1 <0>         0.0735
     34 H5          6.6566    3.9317  -10.0538 H         1 <0>         0.0707
     35 H6          3.0911    3.3766  -10.7268 H         1 <0>         0.1394
     36 H7          1.7581    1.6217   -9.6327 H         1 <0>         0.1349
     37 H8          5.3276   -0.0472   -7.9721 H         1 <0>         0.1523
     38 H9          1.9117   -0.6741   -8.5373 H         1 <0>         0.4163
     39 H10         1.7460   -2.8959   -7.9492 H         1 <0>         0.0845
     40 H11         3.1641   -3.4836   -7.0481 H         1 <0>         0.0793
     41 H12         1.5243   -3.8031   -6.4339 H         1 <0>         0.0818
     42 H13         2.8228   -4.6787   -2.8851 H         1 <0>         0.0723
     43 H14         4.1784   -3.5542   -3.1420 H         1 <0>         0.0885
     44 H15         3.6866   -3.9923   -1.4883 H         1 <0>         0.0938
     45 H16         0.4648   -3.4344   -1.9706 H         1 <0>         0.4299
     46 H17        -0.9518   -0.5891   -0.0048 H         1 <0>         0.1524
     47 H18        -1.0017    1.8725    0.0066 H         1 <0>         0.1469
     48 H19         3.2644    1.9574   -0.0156 H         1 <0>         0.1478
     49 H20         3.3123   -0.5043   -0.0302 H         1 <0>         0.1532
@<TRIPOS>BOND
     1    1    2 1
     2    1   32 1
     3    1   33 1
     4    1   34 1
     5    2    7 ar
     6    2    3 ar
     7    3    4 ar
     8    3   35 1
     9    4    5 ar
    10    4   36 1
    11    5    6 ar
    12    5    9 1
    13    6    7 ar
    14    6   37 1
    15    7    8 1
    16    9   10 am
    17    9   38 1
    18   10   11 2
    19   10   12 1
    20   12   13 1
    21   12   14 1
    22   12   15 1
    23   14   39 1
    24   14   40 1
    25   14   41 1
    26   15   16 1
    27   16   17 2
    28   16   18 1
    29   18   19 1
    30   18   20 1
    31   18   21 1
    32   20   42 1
    33   20   43 1
    34   20   44 1
    35   21   22 1
    36   21   45 1
    37   22   23 2
    38   22   24 2
    39   22   25 1
    40   25   30 ar
    41   25   26 ar
    42   26   27 ar
    43   26   46 1
    44   27   28 ar
    45   27   47 1
    46   28   29 ar
    47   28   31 1
    48   29   30 ar
    49   29   48 1
    50   30   49 1
@<TRIPOS>MOLECULE
ZINC25256754
   44    46     0     0     0
SMALL
USER_CHARGES
ethyl (4S)-2-oxo-4-(2-thienyl)-6-[[4-(trifluoromethyl)pyrimidin-2-yl]sulfanylmethyl]-3,4-dihydro-1H-pyrimidine-5-carboxylate
@<TRIPOS>ATOM
      1 C1          0.0519   -1.4485    0.0236 C.3       1 <0>        -0.1535
      2 C2          0.4658   -0.0825    0.5747 C.3       1 <0>         0.0565
      3 O1         -0.2606    0.1866    1.7756 O.3       1 <0>        -0.3415
      4 C3         -0.0109    1.3604    2.3925 C.2       1 <0>         0.5416
      5 O2          0.8021    2.1341    1.9223 O.2       1 <0>        -0.4823
      6 C4         -0.6944    1.6916    3.5859 C.2       1 <0>        -0.2398
      7 C5         -0.3172    1.1715    4.7738 C.2       1 <0>         0.2290
      8 N1         -0.9750    1.4958    5.9258 N.am      1 <0>        -0.6635
      9 C6         -2.0257    2.3244    5.9729 C.2       1 <0>         0.7113
     10 O3         -2.5493    2.5495    7.0466 O.2       1 <0>        -0.5603
     11 N2         -2.5215    2.9172    4.8688 N.am      1 <0>        -0.7295
     12 C7         -1.8785    2.6370    3.5740 C.3       1 <0>         0.2909
     13 H1         -1.4812    3.6168    3.2704 H         1 <0>         0.1113
     14 C8         -2.9224    2.0624    2.6515 C.2       1 <0>        -0.1741
     15 C9         -3.2033    2.3949    1.3678 C.2       1 <0>        -0.1353
     16 C10        -4.2167    1.7251    0.7083 C.2       1 <0>        -0.1590
     17 C11        -4.8996    0.7555    1.3646 C.2       1 <0>        -0.1681
     18 S1         -4.1049    0.7617    2.9632 S.3       1 <0>         0.0729
     19 C12         0.8520    0.2224    4.8298 C.3       1 <0>        -0.1065
     20 S2          2.2931    1.0799    5.5110 S.3       1 <0>         0.0694
     21 C13         3.4762   -0.2249    5.4636 C.ar      1 <0>         0.2949
     22 N3          3.1124   -1.4119    4.9986 N.ar      1 <0>        -0.5061
     23 C14         3.9762   -2.4121    4.9491 C.ar      1 <0>         0.1817
     24 C15         5.2743   -2.2072    5.3908 C.ar      1 <0>        -0.1858
     25 C16         5.6212   -0.9542    5.8708 C.ar      1 <0>         0.1085
     26 N4          4.7104    0.0050    5.8886 N.ar      1 <0>        -0.4611
     27 C17         7.0205   -0.6861    6.3617 C.3       1 <0>         0.5261
     28 F1          7.8097   -0.2361    5.2979 F         1 <0>        -0.1622
     29 F2          6.9846    0.2914    7.3619 F         1 <0>        -0.1565
     30 F3          7.5663   -1.8649    6.8811 F         1 <0>        -0.1632
     31 H2          0.6110   -1.6557   -0.9008 H         1 <0>         0.0812
     32 H3         -1.0265   -1.4450   -0.1931 H         1 <0>         0.0684
     33 H4          0.2737   -2.2269    0.7685 H         1 <0>         0.0673
     34 H5          1.5442   -0.0860    0.7914 H         1 <0>         0.0679
     35 H6          0.2441    0.6959   -0.1702 H         1 <0>         0.0708
     36 H7         -0.6474    1.0687    6.8851 H         1 <0>         0.4595
     37 H8         -3.3853    3.5964    4.9184 H         1 <0>         0.4643
     38 H9         -2.6435    3.1714    0.8678 H         1 <0>         0.1330
     39 H10        -4.4609    1.9709   -0.3147 H         1 <0>         0.1353
     40 H11        -5.7112    0.1369    1.0109 H         1 <0>         0.1868
     41 H12         0.5982   -0.6345    5.4711 H         1 <0>         0.1331
     42 H13         1.0834   -0.1346    3.8154 H         1 <0>         0.1268
     43 H14         3.6739   -3.3769    4.5696 H         1 <0>         0.1911
     44 H15         5.9995   -3.0070    5.3618 H         1 <0>         0.1686
@<TRIPOS>BOND
     1    1    2 1
     2    1   31 1
     3    1   32 1
     4    1   33 1
     5    2    3 1
     6    2   34 1
     7    2   35 1
     8    3    4 1
     9    4    5 2
    10    4    6 1
    11    6   12 1
    12    6    7 2
    13    7    8 1
    14    7   19 1
    15    8    9 am
    16    8   36 1
    17    9   10 2
    18    9   11 am
    19   11   12 1
    20   11   37 1
    21   12   13 1
    22   12   14 1
    23   14   18 1
    24   14   15 2
    25   15   16 1
    26   15   38 1
    27   16   17 2
    28   16   39 1
    29   17   18 1
    30   17   40 1
    31   19   20 1
    32   19   41 1
    33   19   42 1
    34   20   21 1
    35   21   26 ar
    36   21   22 ar
    37   22   23 ar
    38   23   24 ar
    39   23   43 1
    40   24   25 ar
    41   24   44 1
    42   25   26 ar
    43   25   27 1
    44   27   28 1
    45   27   29 1
    46   27   30 1
@<TRIPOS>MOLECULE
ZINC39616100
   62    65     0     0     0
SMALL
USER_CHARGES

@<TRIPOS>ATOM
      1 C1         -0.0165    1.3620    0.0095 C.ar      1 <0>        -0.1468
      2 C2          1.1697    2.0834    0.0021 C.ar      1 <0>        -0.1010
      3 C3          2.3856    1.4362   -0.0134 C.ar      1 <0>        -0.1320
      4 C4          2.4281    0.0456   -0.0212 C.ar      1 <0>         0.1048
      5 C5          1.2234   -0.6807   -0.0132 C.ar      1 <0>        -0.0805
      6 C6          0.0021   -0.0041    0.0020 C.ar      1 <0>        -0.0715
      7 C7          1.6036   -2.0953   -0.0245 C.2       1 <0>        -0.1590
      8 C8          2.9451   -2.1410   -0.0380 C.2       1 <0>         0.0630
      9 N1          3.4551   -0.8713   -0.0363 N.pl3     1 <0>        -0.5894
     10 H1          4.3995   -0.6501   -0.0442 H         1 <0>         0.4129
     11 C9          0.6664   -3.2754   -0.0210 C.3       1 <0>        -0.0499
     12 C10         0.2361   -3.5891   -1.4554 C.3       1 <0>         0.1672
     13 H2         -0.1919   -2.6956   -1.9099 H         1 <0>         0.1330
     14 C11        -0.7946   -4.6885   -1.4416 C.2       1 <0>         0.4646
     15 O1         -0.5781   -5.7268   -2.0204 O.2       1 <0>        -0.5000
     16 O2         -1.9530   -4.5143   -0.7862 O.3       1 <0>        -0.3191
     17 C12        -2.8839   -5.5981   -0.8149 C.3       1 <0>         0.0468
     18 C13        -4.1157   -5.2231   -0.0319 C.2       1 <0>         0.5127
     19 O3         -4.1891   -4.1349    0.4985 O.2       1 <0>        -0.5117
     20 N2         -5.1357   -6.0970    0.0790 N.am      1 <0>        -0.6001
     21 C14        -5.0147   -7.3882   -0.5601 C.3       1 <0>         0.1016
     22 C15        -5.5529   -7.3029   -2.0097 C.3       1 <0>        -0.1396
     23 C16        -7.0176   -7.1678   -2.0037 C.3       1 <0>        -0.1207
     24 C17        -7.5286   -5.8949   -1.3356 C.3       1 <0>        -0.1183
     25 C18        -7.6369   -6.1198    0.1524 C.3       1 <0>        -0.1315
     26 C19        -6.3278   -5.6986    0.8528 C.3       1 <0>         0.1121
     27 N3          1.4011   -4.0216   -2.2312 N.am      1 <0>        -0.7156
     28 C20         2.2033   -3.1059   -2.8095 C.2       1 <0>         0.5626
     29 O4          1.9602   -1.9211   -2.6873 O.2       1 <0>        -0.4989
     30 C21         3.3781   -3.5420   -3.5918 C.ar      1 <0>        -0.1449
     31 C22         3.6564   -4.9026   -3.7386 C.ar      1 <0>        -0.0571
     32 C23         4.7538   -5.3041   -4.4696 C.ar      1 <0>        -0.1602
     33 C24         5.5810   -4.3597   -5.0583 C.ar      1 <0>         0.1266
     34 C25         5.3093   -3.0076   -4.9157 C.ar      1 <0>        -0.1616
     35 C26         4.2110   -2.5953   -4.1920 C.ar      1 <0>        -0.0285
     36 F1          6.6559   -4.7586   -5.7730 F         1 <0>        -0.1326
     37 H3         -0.9613    1.8849    0.0259 H         1 <0>         0.1194
     38 H4          1.1388    3.1630    0.0081 H         1 <0>         0.1215
     39 H5          3.3028    2.0064   -0.0198 H         1 <0>         0.1154
     40 H6         -0.9246   -0.5587    0.0082 H         1 <0>         0.1197
     41 H7          3.5346   -3.0459   -0.0490 H         1 <0>         0.1580
     42 H8          1.1742   -4.1414    0.4036 H         1 <0>         0.0785
     43 H9         -0.2127   -3.0396    0.5787 H         1 <0>         0.0983
     44 H10        -3.1607   -5.8120   -1.8472 H         1 <0>         0.1017
     45 H11        -2.4262   -6.4821   -0.3708 H         1 <0>         0.1017
     46 H12        -3.9666   -7.6869   -0.5791 H         1 <0>         0.0799
     47 H13        -5.5917   -8.1252   -0.0015 H         1 <0>         0.0869
     48 H14        -5.1130   -6.4388   -2.5076 H         1 <0>         0.0636
     49 H15        -5.2763   -8.2075   -2.5511 H         1 <0>         0.0794
     50 H16        -7.3709   -7.1833   -3.0347 H         1 <0>         0.0607
     51 H17        -7.4422   -8.0262   -1.4832 H         1 <0>         0.0622
     52 H18        -6.8338   -5.0779   -1.5303 H         1 <0>         0.0646
     53 H19        -8.5097   -5.6419   -1.7375 H         1 <0>         0.0658
     54 H20        -8.4642   -5.5306    0.5478 H         1 <0>         0.0787
     55 H21        -7.8232   -7.1762    0.3457 H         1 <0>         0.0680
     56 H22        -6.2829   -6.1647    1.8371 H         1 <0>         0.0676
     57 H23        -6.3245   -4.6155    0.9755 H         1 <0>         0.0929
     58 H24         1.5951   -4.9670   -2.3288 H         1 <0>         0.4069
     59 H25         3.0131   -5.6390   -3.2799 H         1 <0>         0.1374
     60 H26         4.9700   -6.3560   -4.5837 H         1 <0>         0.1436
     61 H27         5.9570   -2.2761   -5.3760 H         1 <0>         0.1437
     62 H28         3.9975   -1.5420   -4.0856 H         1 <0>         0.1461
@<TRIPOS>BOND
     1    1    6 ar
     2    1    2 ar
     3    1   37 1
     4    2    3 ar
     5    2   38 1
     6    3    4 ar
     7    3   39 1
     8    4    9 1
     9    4    5 ar
    10    5    6 ar
    11    5    7 1
    12    6   40 1
    13    7    8 2
    14    7   11 1
    15    8    9 1
    16    8   41 1
    17    9   10 1
    18   11   12 1
    19   11   42 1
    20   11   43 1
    21   12   13 1
    22   12   14 1
    23   12   27 1
    24   14   15 2
    25   14   16 1
    26   16   17 1
    27   17   18 1
    28   17   44 1
    29   17   45 1
    30   18   19 2
    31   18   20 am
    32   20   26 1
    33   20   21 1
    34   21   22 1
    35   21   46 1
    36   21   47 1
    37   22   23 1
    38   22   48 1
    39   22   49 1
    40   23   24 1
    41   23   50 1
    42   23   51 1
    43   24   25 1
    44   24   52 1
    45   24   53 1
    46   25   26 1
    47   25   54 1
    48   25   55 1
    49   26   56 1
    50   26   57 1
    51   27   28 am
    52   27   58 1
    53   28   29 2
    54   28   30 1
    55   30   35 ar
    56   30   31 ar
    57   31   32 ar
    58   31   59 1
    59   32   33 ar
    60   32   60 1
    61   33   34 ar
    62   33   36 1
    63   34   35 ar
    64   34   61 1
    65   35   62 1
@<TRIPOS>MOLECULE
ZINC60031820
   65    66     0     0     0
SMALL
USER_CHARGES

@<TRIPOS>ATOM
      1 C1         -0.0187    1.5258    0.0104 C.3       1 <0>        -0.1486
      2 C2          0.0021   -0.0041    0.0020 C.3       1 <0>        -0.0926
      3 C3          0.7421   -0.5109    1.2415 C.3       1 <0>        -0.1419
      4 C4         -1.4333   -0.5336    0.0129 C.3       1 <0>        -0.1218
      5 C5         -1.4157   -2.0577   -0.1212 C.3       1 <0>         0.1266
      6 H1         -0.7891   -2.4841    0.6622 H         1 <0>         0.1212
      7 C6         -2.8192   -2.5900    0.0125 C.2       1 <0>         0.5148
      8 O1         -3.3197   -3.2157   -0.8979 O.2       1 <0>        -0.5314
      9 N1         -3.5181   -2.3707    1.1439 N.am      1 <0>        -0.7204
     10 C7         -4.8824   -2.8882    1.2739 C.3       1 <0>         0.1450
     11 C8         -5.8656   -1.8972    0.6467 C.3       1 <0>        -0.1447
     12 C9         -7.2873   -2.4575    0.7536 C.3       1 <0>         0.1301
     13 N2         -7.5659   -2.7750    2.1608 N.am      1 <0>        -0.5977
     14 C10        -6.6327   -3.6477    2.8862 C.3       1 <0>         0.1160
     15 C11        -5.2182   -3.0740    2.7554 C.3       1 <0>        -0.1439
     16 C12        -8.6565   -2.2749    2.7747 C.2       1 <0>         0.6543
     17 O2         -9.4205   -1.5540    2.1640 O.2       1 <0>        -0.5636
     18 O3         -8.8995   -2.5742    4.0647 O.3       1 <0>        -0.3569
     19 C13       -10.0736   -2.0094    4.6517 C.3       1 <0>         0.1342
     20 C14       -11.3074   -2.4826    3.8805 C.3       1 <0>        -0.1862
     21 C15       -10.1810   -2.4582    6.1104 C.3       1 <0>        -0.1405
     22 C16        -9.9897   -0.4829    4.5925 C.3       1 <0>        -0.1856
     23 N3         -0.8765   -2.4263   -1.4325 N.am      1 <0>        -0.7080
     24 C17         0.4560   -2.5245   -1.6099 C.2       1 <0>         0.5631
     25 O4          1.2103   -2.3072   -0.6818 O.2       1 <0>        -0.5190
     26 C18         0.9999   -2.8964   -2.9328 C.ar      1 <0>        -0.1332
     27 C19         0.1362   -3.1409   -4.0021 C.ar      1 <0>        -0.0718
     28 C20         0.6496   -3.4871   -5.2342 C.ar      1 <0>        -0.1174
     29 C21         2.0192   -3.5928   -5.4119 C.ar      1 <0>        -0.0098
     30 C22         2.8811   -3.3514   -4.3548 C.ar      1 <0>        -0.1185
     31 C23         2.3797   -2.9989   -3.1195 C.ar      1 <0>        -0.0445
     32 Cl1         2.6581   -4.0301   -6.9657 Cl        1 <0>        -0.0587
     33 H2          1.0039    1.9031    0.0027 H         1 <0>         0.0558
     34 H3         -0.5459    1.8868   -0.8726 H         1 <0>         0.0508
     35 H4         -0.5289    1.8773    0.9072 H         1 <0>         0.0530
     36 H5          0.5123   -0.3556   -0.8948 H         1 <0>         0.0780
     37 H6          0.2319   -0.1594    2.1383 H         1 <0>         0.0427
     38 H7          0.7568   -1.6008    1.2356 H         1 <0>         0.0713
     39 H8          1.7647   -0.1336    1.2338 H         1 <0>         0.0518
     40 H9         -1.9156   -0.2570    0.9504 H         1 <0>         0.0768
     41 H10        -1.9862   -0.1019   -0.8214 H         1 <0>         0.0720
     42 H11        -3.1177   -1.8703    1.8720 H         1 <0>         0.4038
     43 H12        -4.9574   -3.8474    0.7615 H         1 <0>         0.0948
     44 H13        -5.8091   -0.9452    1.1745 H         1 <0>         0.0722
     45 H14        -5.6115   -1.7475   -0.4027 H         1 <0>         0.0856
     46 H15        -8.0008   -1.7139    0.3986 H         1 <0>         0.1017
     47 H16        -7.3697   -3.3625    0.1516 H         1 <0>         0.0764
     48 H17        -6.9142   -3.6894    3.9384 H         1 <0>         0.0996
     49 H18        -6.6616   -4.6497    2.4582 H         1 <0>         0.0759
     50 H19        -4.5034   -3.7620    3.2070 H         1 <0>         0.0874
     51 H20        -5.1678   -2.1110    3.2634 H         1 <0>         0.0764
     52 H21       -11.3673   -3.5701    3.9226 H         1 <0>         0.0593
     53 H22       -12.2030   -2.0518    4.3282 H         1 <0>         0.0706
     54 H23       -11.2310   -2.1629    2.8412 H         1 <0>         0.0872
     55 H24        -9.3020   -2.1211    6.6599 H         1 <0>         0.0663
     56 H25       -11.0766   -2.0274    6.5581 H         1 <0>         0.0811
     57 H26       -10.2408   -3.5457    6.1526 H         1 <0>         0.0667
     58 H27        -9.9132   -0.1632    3.5533 H         1 <0>         0.0870
     59 H28       -10.8853   -0.0521    5.0402 H         1 <0>         0.0706
     60 H29        -9.1107   -0.1458    5.1419 H         1 <0>         0.0586
     61 H30        -1.4784   -2.5997   -2.1731 H         1 <0>         0.4095
     62 H31        -0.9319   -3.0595   -3.8645 H         1 <0>         0.1369
     63 H32        -0.0175   -3.6765   -6.0621 H         1 <0>         0.1417
     64 H33         3.9480   -3.4357   -4.4993 H         1 <0>         0.1425
     65 H34         3.0528   -2.8068   -2.2971 H         1 <0>         0.1477
@<TRIPOS>BOND
     1    1    2 1
     2    1   33 1
     3    1   34 1
     4    1   35 1
     5    2    3 1
     6    2    4 1
     7    2   36 1
     8    3   37 1
     9    3   38 1
    10    3   39 1
    11    4    5 1
    12    4   40 1
    13    4   41 1
    14    5    6 1
    15    5    7 1
    16    5   23 1
    17    7    8 2
    18    7    9 am
    19    9   10 1
    20    9   42 1
    21   10   15 1
    22   10   11 1
    23   10   43 1
    24   11   12 1
    25   11   44 1
    26   11   45 1
    27   12   13 1
    28   12   46 1
    29   12   47 1
    30   13   14 1
    31   13   16 am
    32   14   15 1
    33   14   48 1
    34   14   49 1
    35   15   50 1
    36   15   51 1
    37   16   17 2
    38   16   18 1
    39   18   19 1
    40   19   20 1
    41   19   21 1
    42   19   22 1
    43   20   52 1
    44   20   53 1
    45   20   54 1
    46   21   55 1
    47   21   56 1
    48   21   57 1
    49   22   58 1
    50   22   59 1
    51   22   60 1
    52   23   24 am
    53   23   61 1
    54   24   25 2
    55   24   26 1
    56   26   31 ar
    57   26   27 ar
    58   27   28 ar
    59   27   62 1
    60   28   29 ar
    61   28   63 1
    62   29   30 ar
    63   29   32 1
    64   30   31 ar
    65   30   64 1
    66   31   65 1
@<TRIPOS>MOLECULE
ZINC13338049
   47    48     0     0     0
SMALL
USER_CHARGES
4-[(E)-[[5-(dimethylsulfamoyl)-2-methyl-phenyl]carbamothioylhydrazono]methyl]benzoic acid
@<TRIPOS>ATOM
      1 C1         -2.6646    9.4762   -0.1314 C.3       1 <0>        -0.1290
      2 C2         -4.0056   10.1636   -0.1133 C.ar      1 <0>        -0.0291
      3 C3         -4.0779   11.5405   -0.1965 C.ar      1 <0>        -0.1341
      4 C4         -5.3078   12.1720   -0.1794 C.ar      1 <0>        -0.0143
      5 C5         -6.4693   11.4279   -0.0795 C.ar      1 <0>        -0.6762
      6 C6         -6.4042   10.0507   -0.0013 C.ar      1 <0>         0.0323
      7 C7         -5.1699    9.4136   -0.0124 C.ar      1 <0>         0.1070
      8 N1         -5.1002    8.0192    0.0721 N.pl3     1 <0>        -0.6145
      9 C8         -5.8650    7.3591    0.9642 C.2       1 <0>         0.5855
     10 S1         -6.8162    8.2324    2.0882 S.2       1 <0>        -0.5972
     11 N2         -5.8809    6.0114    0.9714 N.pl3     1 <0>        -0.5308
     12 N3         -5.1025    5.2968    0.0515 N.2       1 <0>        -0.3104
     13 C9         -5.1179    3.9981    0.0584 C.2       1 <0>         0.1849
     14 C10        -4.2996    3.2469   -0.9086 C.ar      1 <0>        -0.0951
     15 C11        -4.3160    1.8480   -0.9012 C.ar      1 <0>        -0.0899
     16 C12        -3.5575    1.1516   -1.7983 C.ar      1 <0>        -0.0960
     17 C13        -2.7644    1.8367   -2.7242 C.ar      1 <0>        -0.0759
     18 C14        -2.7437    3.2350   -2.7283 C.ar      1 <0>        -0.0897
     19 C15        -3.5061    3.9320   -1.8349 C.ar      1 <0>        -0.0837
     20 C16        -1.9448    1.0842   -3.6927 C.2       1 <0>         0.4827
     21 O1         -1.9589   -0.1307   -3.6859 O.co2     1 <0>        -0.6244
     22 S2         -8.0341   12.2375   -0.0587 S.o2      1 <0>         2.6914
     23 O2         -8.9393   11.3553    0.5906 O.2       1 <0>        -0.9418
     24 O3         -7.8000   13.5620    0.3999 O.2       1 <0>        -0.9564
     25 N4         -8.5411   12.3634   -1.6302 N.pl3     1 <0>        -1.0058
     26 C17        -9.3457   11.2951   -2.2281 C.3       1 <0>         0.0835
     27 C18        -8.1851   13.5432   -2.4224 C.3       1 <0>         0.0816
     28 H1         -2.3884    9.2457   -1.1604 H         1 <0>         0.0842
     29 H2         -1.9137   10.1328    0.3080 H         1 <0>         0.0811
     30 H3         -2.7219    8.5528    0.4449 H         1 <0>         0.0694
     31 H4         -3.1728   12.1244   -0.2753 H         1 <0>         0.1389
     32 H5         -5.3616   13.2487   -0.2446 H         1 <0>         0.1417
     33 H6         -7.3118    9.4700    0.0726 H         1 <0>         0.1551
     34 H7         -4.5015    7.5273   -0.5114 H         1 <0>         0.4223
     35 H8         -6.4313    5.5363    1.6134 H         1 <0>         0.4173
     36 H9         -5.7307    3.4692    0.7733 H         1 <0>         0.1269
     37 H10        -4.9283    1.3189   -0.1859 H         1 <0>         0.1255
     38 H11        -3.5704    0.0717   -1.7929 H         1 <0>         0.1354
     39 H12        -2.1276    3.7639   -3.4405 H         1 <0>         0.1369
     40 H13        -3.4929    5.0119   -1.8405 H         1 <0>         0.1241
     41 H14        -9.5078   10.5072   -1.4925 H         1 <0>         0.0865
     42 H15       -10.3070   11.6987   -2.5459 H         1 <0>         0.0676
     43 H16        -8.8209   10.8844   -3.0907 H         1 <0>         0.0621
     44 H17        -7.2388   13.3656   -2.9334 H         1 <0>         0.0563
     45 H18        -8.9653   13.7352   -3.1590 H         1 <0>         0.0775
     46 H19        -8.0863   14.4065   -1.7644 H         1 <0>         0.0837
     47 O4         -1.1848    1.7443   -4.5886 O.co2     1 <0>        -0.7471
@<TRIPOS>BOND
     1    1    2 1
     2    1   28 1
     3    1   29 1
     4    1   30 1
     5    2    7 ar
     6    2    3 ar
     7    3    4 ar
     8    3   31 1
     9    4    5 ar
    10    4   32 1
    11    5    6 ar
    12    5   22 1
    13    6    7 ar
    14    6   33 1
    15    7    8 1
    16    8    9 1
    17    8   34 1
    18    9   10 2
    19    9   11 1
    20   11   12 1
    21   11   35 1
    22   12   13 2
    23   13   14 1
    24   13   36 1
    25   14   19 ar
    26   14   15 ar
    27   15   16 ar
    28   15   37 1
    29   16   17 ar
    30   16   38 1
    31   17   18 ar
    32   17   20 1
    33   18   19 ar
    34   18   39 1
    35   19   40 1
    36   20   21 2
    37   20   47 1
    38   22   23 2
    39   22   24 2
    40   22   25 1
    41   25   26 1
    42   25   27 1
    43   26   41 1
    44   26   42 1
    45   26   43 1
    46   27   44 1
    47   27   45 1
    48   27   46 1
@<TRIPOS>MOLECULE
ZINC14123871
   57    60     0     0     0
SMALL
USER_CHARGES

@<TRIPOS>ATOM
      1 C1         -0.0187    1.5258    0.0104 C.3       1 <0>        -0.1435
      2 C2          0.0021   -0.0041    0.0020 C.3       1 <0>        -0.0884
      3 H1         -1.0199   -0.3831    0.0097 H         1 <0>         0.0717
      4 C3          0.7237   -0.5004   -1.2542 C.3       1 <0>        -0.1145
      5 C4          0.5373   -2.0124   -1.3984 C.3       1 <0>        -0.0470
      6 C5          0.9357   -2.6800   -0.0903 C.2       1 <0>        -0.0368
      7 C6          1.0196   -1.9775    1.0588 C.2       1 <0>        -0.2656
      8 S1          1.5075   -3.1632    2.2773 S.3       1 <0>         0.2062
      9 C7          1.5997   -4.5391    1.3192 C.2       1 <0>         0.0438
     10 C8          1.2544   -4.0916    0.0501 C.2       1 <0>        -0.2362
     11 C9          1.2141   -4.9731   -1.0597 C.2       1 <0>         0.5380
     12 O1          0.9056   -4.5500   -2.1671 O.co2     1 <0>        -0.6844
     13 O2          1.4878   -6.1579   -0.9111 O.co2     1 <0>        -0.7103
     14 N1          1.9414   -5.8243    1.7052 N.am      1 <0>        -0.5966
     15 C10         2.2505   -6.0818    2.9915 C.2       1 <0>         0.5039
     16 O3          2.2294   -5.1880    3.8109 O.2       1 <0>        -0.4982
     17 C11         2.6224   -7.4805    3.4116 C.3       1 <0>         0.0718
     18 H2          1.7936   -8.1560    3.1997 H         1 <0>         0.1156
     19 C12         3.8609   -7.9337    2.6360 C.3       1 <0>        -0.1926
     20 N2          2.9127   -7.4984    4.8516 N.3       1 <0>        -0.4910
     21 C13         4.0430   -6.6164    5.1717 C.3       1 <0>         0.0037
     22 C14         3.1639   -8.8675    5.3210 C.3       1 <0>         0.0950
     23 C15         3.2138   -8.8810    6.8271 C.2       1 <0>         0.3937
     24 N3          3.4436  -10.0644    7.4537 N.am      1 <0>        -0.6520
     25 H3          3.5700  -10.8698    6.9281 H         1 <0>         0.4176
     26 C16         3.4982  -10.1298    8.8044 C.2       1 <0>         0.5538
     27 O4          3.7037  -11.1831    9.3787 O.2       1 <0>        -0.5165
     28 C17         3.3001   -8.8785    9.5512 C.ar      1 <0>        -0.2030
     29 C18         3.3367   -8.8373   10.9430 C.ar      1 <0>        -0.0434
     30 C19         3.1441   -7.6370   11.5920 C.ar      1 <0>        -0.1412
     31 C20         2.9147   -6.4731   10.8706 C.ar      1 <0>        -0.0739
     32 C21         2.8743   -6.4925    9.4943 C.ar      1 <0>        -0.1050
     33 C22         3.0670   -7.6962    8.8139 C.ar      1 <0>         0.1542
     34 N4          3.0402   -7.7602    7.4590 N.2       1 <0>        -0.4786
     35 C23         0.7497   -0.5152    1.2423 C.3       1 <0>        -0.0148
     36 H4          1.0039    1.9031    0.0027 H         1 <0>         0.0532
     37 H5         -0.5459    1.8868   -0.8726 H         1 <0>         0.0534
     38 H6         -0.5289    1.8773    0.9072 H         1 <0>         0.0519
     39 H7          0.3116    0.0005   -2.1302 H         1 <0>         0.0604
     40 H8          1.7867   -0.2725   -1.1750 H         1 <0>         0.0585
     41 H9         -0.5073   -2.2327   -1.6181 H         1 <0>         0.0688
     42 H10         1.1692   -2.3834   -2.2054 H         1 <0>         0.0945
     43 H11         1.9583   -6.5392    1.0499 H         1 <0>         0.4328
     44 H12         4.6897   -7.2582    2.8480 H         1 <0>         0.0692
     45 H13         4.1299   -8.9454    2.9399 H         1 <0>         0.0694
     46 H14         3.6455   -7.9204    1.5676 H         1 <0>         0.0799
     47 H15         3.8019   -5.5952    4.8765 H         1 <0>         0.0997
     48 H16         4.2365   -6.6485    6.2439 H         1 <0>         0.0876
     49 H17         4.9291   -6.9510    4.6324 H         1 <0>         0.0176
     50 H18         2.3625   -9.5220    4.9781 H         1 <0>         0.1117
     51 H19         4.1157   -9.2192    4.9228 H         1 <0>         0.0740
     52 H20         3.5144   -9.7395   11.5095 H         1 <0>         0.1355
     53 H21         3.1714   -7.6014   12.6711 H         1 <0>         0.1317
     54 H22         2.7658   -5.5410   11.3954 H         1 <0>         0.1341
     55 H23         2.6951   -5.5808    8.9438 H         1 <0>         0.1436
     56 H24         1.6929    0.0204    1.3494 H         1 <0>         0.0690
     57 H25         0.1364   -0.3614    2.1302 H         1 <0>         0.0681
@<TRIPOS>BOND
     1    1    2 1
     2    1   36 1
     3    1   37 1
     4    1   38 1
     5    2    3 1
     6    2   35 1
     7    2    4 1
     8    4    5 1
     9    4   39 1
    10    4   40 1
    11    5    6 1
    12    5   41 1
    13    5   42 1
    14    6   10 1
    15    6    7 2
    16    7    8 1
    17    7   35 1
    18    8    9 1
    19    9   10 2
    20    9   14 1
    21   10   11 1
    22   11   12 2
    23   11   13 1
    24   14   15 am
    25   14   43 1
    26   15   16 2
    27   15   17 1
    28   17   18 1
    29   17   19 1
    30   17   20 1
    31   19   44 1
    32   19   45 1
    33   19   46 1
    34   20   21 1
    35   20   22 1
    36   21   47 1
    37   21   48 1
    38   21   49 1
    39   22   50 1
    40   22   51 1
    41   22   23 1
    42   23   34 2
    43   23   24 1
    44   24   25 1
    45   24   26 am
    46   26   27 2
    47   26   28 1
    48   28   29 ar
    49   28   33 ar
    50   29   52 1
    51   29   30 ar
    52   30   53 1
    53   30   31 ar
    54   31   54 1
    55   31   32 ar
    56   32   55 1
    57   32   33 ar
    58   33   34 1
    59   35   56 1
    60   35   57 1
@<TRIPOS>MOLECULE
ZINC40084797
   61    63     0     0     0
SMALL
USER_CHARGES

@<TRIPOS>ATOM
      1 C1         -2.1548    2.0403    2.8014 C.3       1 <0>        -0.1101
      2 C2         -0.8405    2.7776    2.8025 C.ar      1 <0>        -0.0005
      3 C3         -0.8194    4.1489    2.9240 C.ar      1 <0>        -0.1535
      4 C4          0.3926    4.8301    2.9247 C.ar      1 <0>         0.1258
      5 C5          1.5882    4.1302    2.8033 C.ar      1 <0>        -0.2152
      6 C6          1.5760    2.7593    2.6814 C.ar      1 <0>        -0.0503
      7 C7          0.3595    2.0697    2.6860 C.ar      1 <0>        -0.1153
      8 C8          0.3419    0.5989    2.5621 C.2       1 <0>         0.4811
      9 O1          0.5215    0.0774    1.4773 O.2       1 <0>        -0.5235
     10 C9          0.1083   -0.2339    3.7463 C.2       1 <0>        -0.4790
     11 C10        -0.0528    0.1988    5.0183 C.2       1 <0>         0.2792
     12 C11        -0.2643   -0.9652    5.9041 C.2       1 <0>         0.5042
     13 O2         -0.4402   -0.9048    7.1048 O.2       1 <0>        -0.5379
     14 N1         -0.2336   -2.1015    5.1844 N.am      1 <0>        -0.6012
     15 C12        -0.0057   -1.7401    3.7803 C.3       1 <0>         0.2628
     16 H1         -0.8448   -2.0665    3.1659 H         1 <0>         0.0805
     17 C13         1.2729   -2.3677    3.2881 C.ar      1 <0>        -0.0277
     18 C14         2.3776   -2.4238    4.1175 C.ar      1 <0>        -0.1255
     19 C15         3.5528   -2.9985    3.6707 C.ar      1 <0>        -0.1118
     20 C16         3.6253   -3.5204    2.3891 C.ar      1 <0>         0.0565
     21 C17         2.5133   -3.4643    1.5544 C.ar      1 <0>         0.0986
     22 C18         1.3369   -2.8912    2.0103 C.ar      1 <0>        -0.1613
     23 O3          2.5794   -3.9751    0.2958 O.3       1 <0>        -0.3141
     24 C19         1.4357   -3.7896   -0.5406 C.3       1 <0>         0.0260
     25 O4          4.7808   -4.0857    1.9478 O.3       1 <0>        -0.4885
     26 C20        -0.4036   -3.4589    5.7086 C.3       1 <0>         0.1355
     27 C21        -1.8863   -3.8354    5.6780 C.3       1 <0>         0.0592
     28 O5         -2.3347   -3.8947    4.3225 O.3       1 <0>        -0.5642
     29 O6         -0.0242    1.4918    5.4161 O.3       1 <0>        -0.6116
     30 O7          0.4089    6.1817    3.0438 O.3       1 <0>        -0.3168
     31 C22         1.6780    6.8280    2.9264 C.3       1 <0>         0.0637
     32 C23         1.5088    8.3305    3.1608 C.3       1 <0>        -0.0943
     33 C24         1.0622    8.5744    4.6038 C.3       1 <0>        -0.1471
     34 C25         2.8422    9.0387    2.9130 C.3       1 <0>        -0.1454
     35 H2         -2.3753    1.6893    3.8094 H         1 <0>         0.0798
     36 H3         -2.9472    2.7108    2.4686 H         1 <0>         0.0587
     37 H4         -2.0924    1.1877    2.1252 H         1 <0>         0.0649
     38 H5         -1.7456    4.6962    3.0186 H         1 <0>         0.1231
     39 H6          2.5275    4.6632    2.8042 H         1 <0>         0.1195
     40 H7          2.5050    2.2165    2.5868 H         1 <0>         0.1168
     41 H8          2.3224   -2.0175    5.1166 H         1 <0>         0.1201
     42 H9          4.4146   -3.0405    4.3203 H         1 <0>         0.1284
     43 H10         0.4713   -2.8498    1.3658 H         1 <0>         0.1319
     44 H11         0.5570   -4.2125   -0.0536 H         1 <0>         0.0534
     45 H12         1.2793   -2.7245   -0.7112 H         1 <0>         0.0605
     46 H13         1.5985   -4.2904   -1.4949 H         1 <0>         0.0938
     47 H14         4.8472   -5.0341    2.1246 H         1 <0>         0.3766
     48 H15         0.1619   -4.1592    5.0940 H         1 <0>         0.0828
     49 H16        -0.0394   -3.5002    6.7352 H         1 <0>         0.0920
     50 H17        -2.0237   -4.8087    6.1491 H         1 <0>         0.0510
     51 H18        -2.4629   -3.0852    6.2190 H         1 <0>         0.0494
     52 H19        -3.2681   -4.1287    4.2269 H         1 <0>         0.3735
     53 H20         2.3638    6.4195    3.6686 H         1 <0>         0.0605
     54 H21         2.0807    6.6592    1.9277 H         1 <0>         0.0581
     55 H22         0.7565    8.7225    2.4765 H         1 <0>         0.0790
     56 H23         1.8146    8.1823    5.2881 H         1 <0>         0.0541
     57 H24         0.9417    9.6448    4.7708 H         1 <0>         0.0533
     58 H25         0.1123    8.0699    4.7803 H         1 <0>         0.0642
     59 H26         3.1603    8.8649    1.8850 H         1 <0>         0.0566
     60 H27         2.7216   10.1090    3.0800 H         1 <0>         0.0617
     61 H28         3.5945    8.6466    3.5974 H         1 <0>         0.0575
@<TRIPOS>BOND
     1    1    2 1
     2    1   35 1
     3    1   36 1
     4    1   37 1
     5    2    7 ar
     6    2    3 ar
     7    3    4 ar
     8    3   38 1
     9    4    5 ar
    10    4   30 1
    11    5    6 ar
    12    5   39 1
    13    6    7 ar
    14    6   40 1
    15    7    8 1
    16    8    9 2
    17    8   10 1
    18   10   15 1
    19   10   11 2
    20   11   12 1
    21   11   29 1
    22   12   13 2
    23   12   14 am
    24   14   15 1
    25   14   26 1
    26   15   16 1
    27   15   17 1
    28   17   22 ar
    29   17   18 ar
    30   18   19 ar
    31   18   41 1
    32   19   20 ar
    33   19   42 1
    34   20   21 ar
    35   20   25 1
    36   21   22 ar
    37   21   23 1
    38   22   43 1
    39   23   24 1
    40   24   44 1
    41   24   45 1
    42   24   46 1
    43   25   47 1
    44   26   27 1
    45   26   48 1
    46   26   49 1
    47   27   28 1
    48   27   50 1
    49   27   51 1
    50   28   52 1
    51   30   31 1
    52   31   32 1
    53   31   53 1
    54   31   54 1
    55   32   33 1
    56   32   34 1
    57   32   55 1
    58   33   56 1
    59   33   57 1
    60   33   58 1
    61   34   59 1
    62   34   60 1
    63   34   61 1
@<TRIPOS>MOLECULE
ZINC58844891
   45    47     0     0     0
SMALL
USER_CHARGES

@<TRIPOS>ATOM
      1 C1          0.1726    1.2331   -0.5031 C.ar      1 <0>        -0.1357
      2 C2          1.3962    1.8580   -0.6554 C.ar      1 <0>        -0.1196
      3 C3          2.5597    1.1115   -0.6445 C.ar      1 <0>        -0.1035
      4 C4          2.4995   -0.2598   -0.4807 C.ar      1 <0>        -0.0497
      5 C5          1.2760   -0.8846   -0.3274 C.ar      1 <0>        -0.1188
      6 C6          0.1125   -0.1383   -0.3398 C.ar      1 <0>        -0.1200
      7 C7          3.7678   -1.0737   -0.4697 C.3       1 <0>         0.1076
      8 H1          4.6144   -0.4242   -0.2467 H         1 <0>         0.0936
      9 C8          3.9666   -1.7123   -1.8201 C.2       1 <0>         0.5005
     10 O1          4.2540   -1.0232   -2.7840 O.co2     1 <0>        -0.6875
     11 O2          3.8399   -2.9180   -1.9489 O.co2     1 <0>        -0.6795
     12 N1          3.6697   -2.1169    0.5542 N.am      1 <0>        -0.6873
     13 C9          4.7887   -2.6284    1.1044 C.2       1 <0>         0.5556
     14 O3          5.8792   -2.2242    0.7511 O.2       1 <0>        -0.5354
     15 C10         4.6897   -3.6814    2.1377 C.ar      1 <0>        -0.0944
     16 C11         3.4384   -4.1514    2.5411 C.ar      1 <0>        -0.0999
     17 C12         3.3487   -5.1340    3.5056 C.ar      1 <0>        -0.1070
     18 C13         4.4947   -5.6561    4.0760 C.ar      1 <0>        -0.1287
     19 C14         5.7449   -5.1947    3.6818 C.ar      1 <0>         0.1357
     20 C15         5.8460   -4.2122    2.7086 C.ar      1 <0>        -0.0624
     21 N2          6.9014   -5.7257    4.2624 N.am      1 <0>        -0.6674
     22 C16         7.9844   -4.9442    4.4437 C.2       1 <0>         0.5414
     23 O4          7.9256   -3.7562    4.1923 O.2       1 <0>        -0.4728
     24 C17         9.2431   -5.5312    4.9480 C.ar      1 <0>        -0.1104
     25 C18         9.3158   -6.8963    5.2323 C.ar      1 <0>        -0.0807
     26 C19        10.4936   -7.4378    5.7027 C.ar      1 <0>        -0.1145
     27 C20        11.6026   -6.6318    5.8935 C.ar      1 <0>        -0.0884
     28 C21        11.5386   -5.2789    5.6142 C.ar      1 <0>        -0.1000
     29 C22        10.3673   -4.7241    5.1370 C.ar      1 <0>        -0.0428
     30 Br1        10.2835   -2.8755    4.7481 Br        1 <0>        -0.0008
     31 H2         -0.7360    1.8168   -0.5071 H         1 <0>         0.1157
     32 H3          1.4432    2.9293   -0.7834 H         1 <0>         0.1184
     33 H4          3.5156    1.5996   -0.7642 H         1 <0>         0.1227
     34 H5          1.2290   -1.9560   -0.1998 H         1 <0>         0.1185
     35 H6         -0.8435   -0.6265   -0.2204 H         1 <0>         0.1178
     36 H7          2.7995   -2.4395    0.8361 H         1 <0>         0.3905
     37 H8          2.5408   -3.7457    2.0984 H         1 <0>         0.1275
     38 H9          2.3799   -5.4963    3.8163 H         1 <0>         0.1316
     39 H10         4.4182   -6.4247    4.8308 H         1 <0>         0.1266
     40 H11         6.8168   -3.8560    2.3971 H         1 <0>         0.1490
     41 H12         6.9240   -6.6565    4.5345 H         1 <0>         0.4068
     42 H13         8.4515   -7.5267    5.0844 H         1 <0>         0.1342
     43 H14        10.5508   -8.4935    5.9233 H         1 <0>         0.1363
     44 H15        12.5222   -7.0615    6.2625 H         1 <0>         0.1368
     45 H16        12.4076   -4.6557    5.7656 H         1 <0>         0.1403
@<TRIPOS>BOND
     1    1    6 ar
     2    1    2 ar
     3    1   31 1
     4    2    3 ar
     5    2   32 1
     6    3    4 ar
     7    3   33 1
     8    4    5 ar
     9    4    7 1
    10    5    6 ar
    11    5   34 1
    12    6   35 1
    13    7    8 1
    14    7    9 1
    15    7   12 1
    16    9   10 2
    17    9   11 1
    18   12   13 am
    19   12   36 1
    20   13   14 2
    21   13   15 1
    22   15   20 ar
    23   15   16 ar
    24   16   17 ar
    25   16   37 1
    26   17   18 ar
    27   17   38 1
    28   18   19 ar
    29   18   39 1
    30   19   20 ar
    31   19   21 1
    32   20   40 1
    33   21   22 am
    34   21   41 1
    35   22   23 2
    36   22   24 1
    37   24   29 ar
    38   24   25 ar
    39   25   26 ar
    40   25   42 1
    41   26   27 ar
    42   26   43 1
    43   27   28 ar
    44   27   44 1
    45   28   29 ar
    46   28   45 1
    47   29   30 1
@<TRIPOS>MOLECULE
ZINC64774873
   56    58     0     0     0
SMALL
USER_CHARGES

@<TRIPOS>ATOM
      1 C1          2.4400    2.9341   -0.9433 C.3       1 <0>        -0.1005
      2 C2          1.9539    1.5252   -0.7205 C.ar      1 <0>        -0.1116
      3 C3          1.7976    0.6707   -1.7954 C.ar      1 <0>        -0.1181
      4 C4          1.3513   -0.6244   -1.5996 C.ar      1 <0>        -0.1273
      5 C5          1.0580   -1.0746   -0.3281 C.ar      1 <0>        -0.0737
      6 C6          1.2120   -0.2231    0.7638 C.ar      1 <0>         0.0283
      7 C7          1.6692    1.0854    0.5634 C.ar      1 <0>         0.1527
      8 N1          1.8326    1.9460    1.6522 N.am      1 <0>        -0.6682
      9 C8          2.5859    1.5671    2.7036 C.2       1 <0>         0.5031
     10 O1          3.0641    0.4529    2.7368 O.2       1 <0>        -0.5057
     11 C9          2.8340    2.5277    3.8379 C.3       1 <0>        -0.1668
     12 C10         0.8987   -0.7011    2.1306 C.ar      1 <0>        -0.0135
     13 C11         1.4275   -1.9175    2.6005 C.ar      1 <0>         0.4492
     14 O2          2.2314   -2.6724    1.8139 O.3       1 <0>        -0.6525
     15 N2          1.1220   -2.3089    3.8308 N.ar      1 <0>        -0.5670
     16 C12         0.3316   -1.5488    4.5810 C.ar      1 <0>         0.2635
     17 N3         -0.1565   -0.4047    4.1180 N.ar      1 <0>        -0.4063
     18 N4          0.1192    0.0146    2.9328 N.ar      1 <0>        -0.1906
     19 S1         -0.0753   -2.0679    6.2149 S.3       1 <0>         0.0414
     20 C13        -1.1498   -0.7468    6.8402 C.3       1 <0>        -0.1447
     21 C14        -1.5757   -1.0703    8.2491 C.2       1 <0>         0.5348
     22 O3         -1.1921   -2.0915    8.7792 O.2       1 <0>        -0.4996
     23 N5         -2.3828   -0.2248    8.9200 N.am      1 <0>        -0.6758
     24 C15        -2.7250   -0.4918   10.2503 C.ar      1 <0>         0.1317
     25 C16        -2.4274    0.4315   11.2440 C.ar      1 <0>        -0.0845
     26 C17        -2.7663    0.1649   12.5561 C.ar      1 <0>        -0.1199
     27 C18        -3.4014   -1.0198   12.8808 C.ar      1 <0>        -0.0837
     28 C19        -3.6987   -1.9414   11.8936 C.ar      1 <0>        -0.1182
     29 C20        -3.3679   -1.6781   10.5788 C.ar      1 <0>        -0.0597
     30 C21        -3.6987   -2.6798    9.5026 C.3       1 <0>        -0.1116
     31 C22        -3.7698   -1.3073   14.3135 C.3       1 <0>        -0.1126
     32 C23        -1.7349    1.7226   10.8912 C.3       1 <0>        -0.1154
     33 H1          3.5200    2.9726   -0.8008 H         1 <0>         0.0644
     34 H2          2.1962    3.2463   -1.9587 H         1 <0>         0.0634
     35 H3          1.9556    3.6024   -0.2314 H         1 <0>         0.0587
     36 H4          2.0246    1.0156   -2.7934 H         1 <0>         0.1192
     37 H5          1.2315   -1.2855   -2.4451 H         1 <0>         0.1202
     38 H6          0.7093   -2.0859   -0.1798 H         1 <0>         0.1249
     39 H7          1.4038    2.8161    1.6512 H         1 <0>         0.4025
     40 H8          1.8825    2.8149    4.2855 H         1 <0>         0.0869
     41 H9          3.4593    2.0475    4.5905 H         1 <0>         0.0876
     42 H10         3.3395    3.4155    3.4581 H         1 <0>         0.0833
     43 H11        -0.6061    0.1978    6.8328 H         1 <0>         0.1198
     44 H12        -2.0312   -0.6637    6.2042 H         1 <0>         0.1202
     45 H13        -2.7266    0.5688    8.4807 H         1 <0>         0.4101
     46 H14        -2.5348    0.8824   13.3295 H         1 <0>         0.1233
     47 H15        -4.1944   -2.8659   12.1504 H         1 <0>         0.1236
     48 H16        -2.9191   -3.4406    9.4623 H         1 <0>         0.0860
     49 H17        -4.6554   -3.1515    9.7270 H         1 <0>         0.0613
     50 H18        -3.7608   -2.1720    8.5402 H         1 <0>         0.0598
     51 H19        -4.7713   -0.9270   14.5144 H         1 <0>         0.0690
     52 H20        -3.7486   -2.3835   14.4851 H         1 <0>         0.0658
     53 H21        -3.0559   -0.8195   14.9771 H         1 <0>         0.0652
     54 H22        -2.4787    2.5059   10.7460 H         1 <0>         0.0710
     55 H23        -1.0614    2.0064   11.6999 H         1 <0>         0.0689
     56 H24        -1.1635    1.5892    9.9726 H         1 <0>         0.0676
@<TRIPOS>BOND
     1    1    2 1
     2    1   33 1
     3    1   34 1
     4    1   35 1
     5    2    7 ar
     6    2    3 ar
     7    3    4 ar
     8    3   36 1
     9    4    5 ar
    10    4   37 1
    11    5    6 ar
    12    5   38 1
    13    6    7 ar
    14    6   12 1
    15    7    8 1
    16    8    9 am
    17    8   39 1
    18    9   10 2
    19    9   11 1
    20   11   40 1
    21   11   41 1
    22   11   42 1
    23   12   18 ar
    24   12   13 ar
    25   13   14 1
    26   13   15 ar
    27   15   16 ar
    28   16   19 1
    29   16   17 ar
    30   17   18 ar
    31   19   20 1
    32   20   21 1
    33   20   43 1
    34   20   44 1
    35   21   22 2
    36   21   23 am
    37   23   24 1
    38   23   45 1
    39   24   29 ar
    40   24   25 ar
    41   25   26 ar
    42   25   32 1
    43   26   27 ar
    44   26   46 1
    45   27   28 ar
    46   27   31 1
    47   28   29 ar
    48   28   47 1
    49   29   30 1
    50   30   48 1
    51   30   49 1
    52   30   50 1
    53   31   51 1
    54   31   52 1
    55   31   53 1
    56   32   54 1
    57   32   55 1
    58   32   56 1
@<TRIPOS>MOLECULE
ZINC09469688
   31    32     0     0     0
SMALL
USER_CHARGES
2,3-dichloro-N'-[5-(trifluoromethyl)-2-pyridyl]-benzenesulfonohydrazide
@<TRIPOS>ATOM
      1 C1         -3.9538   -1.1724    6.3741 C.ar      1 <0>        -0.1226
      2 C2         -4.3059    0.1610    6.4734 C.ar      1 <0>        -0.0055
      3 C3         -4.7196    0.8527    5.3508 C.ar      1 <0>        -0.6668
      4 C4         -4.7867    0.2096    4.1277 C.ar      1 <0>         0.0639
      5 C5         -4.4292   -1.1241    4.0273 C.ar      1 <0>        -0.0537
      6 C6         -4.0153   -1.8150    5.1521 C.ar      1 <0>        -0.0416
      7 Cl1        -4.5065   -1.9308    2.4920 Cl        1 <0>        -0.0324
      8 Cl2        -5.3132    1.0762    2.7185 Cl        1 <0>        -0.0084
      9 S1         -5.1686    2.5518    5.4786 S.o2      1 <0>         2.6921
     10 O1         -4.9636    2.9252    6.8342 O.2       1 <0>        -0.9395
     11 O2         -6.4268    2.6890    4.8325 O.2       1 <0>        -0.9198
     12 N1         -4.0783    3.4153    4.5797 N.pl3     1 <0>        -0.8873
     13 N2         -2.7185    3.3915    4.9158 N.pl3     1 <0>        -0.4933
     14 C7         -1.7738    3.0236    3.9648 C.ar      1 <0>         0.4213
     15 C8         -0.4249    3.0022    4.3052 C.ar      1 <0>        -0.2233
     16 C9          0.5042    2.6342    3.3492 C.ar      1 <0>         0.0191
     17 C10         0.0517    2.2986    2.0798 C.ar      1 <0>        -0.2928
     18 C11        -1.3009    2.3473    1.8094 C.ar      1 <0>         0.2088
     19 N3         -2.1656    2.6972    2.7430 N.ar      1 <0>        -0.5205
     20 C12         1.0282    1.8915    1.0066 C.3       1 <0>         0.5201
     21 F1          1.2160    0.5058    1.0483 F         1 <0>        -0.1762
     22 F2          2.2520    2.5346    1.2213 F         1 <0>        -0.1771
     23 F3          0.5233    2.2563   -0.2461 F         1 <0>        -0.1760
     24 H1         -3.6303   -1.7120    7.2519 H         1 <0>         0.1519
     25 H2         -4.2572    0.6623    7.4288 H         1 <0>         0.1592
     26 H3         -3.7398   -2.8564    5.0752 H         1 <0>         0.1528
     27 H4         -4.3812    3.9375    3.8205 H         1 <0>         0.4334
     28 H5         -2.4361    3.6318    5.8122 H         1 <0>         0.4426
     29 H6         -0.1077    3.2696    5.3024 H         1 <0>         0.1501
     30 H7          1.5580    2.6086    3.5844 H         1 <0>         0.1514
     31 H8         -1.6566    2.0918    0.8222 H         1 <0>         0.1700
@<TRIPOS>BOND
     1    1    6 ar
     2    1    2 ar
     3    1   24 1
     4    2    3 ar
     5    2   25 1
     6    3    4 ar
     7    3    9 1
     8    4    5 ar
     9    4    8 1
    10    5    6 ar
    11    5    7 1
    12    6   26 1
    13    9   10 2
    14    9   11 2
    15    9   12 1
    16   12   13 1
    17   12   27 1
    18   13   14 1
    19   13   28 1
    20   14   19 ar
    21   14   15 ar
    22   15   16 ar
    23   15   29 1
    24   16   17 ar
    25   16   30 1
    26   17   18 ar
    27   17   20 1
    28   18   19 ar
    29   18   31 1
    30   20   21 1
    31   20   22 1
    32   20   23 1
@<TRIPOS>MOLECULE
ZINC39703177
   52    55     0     0     0
SMALL
USER_CHARGES

@<TRIPOS>ATOM
      1 C1         -0.9792   -1.6730   -1.8398 C.3       1 <0>        -0.1162
      2 C2         -0.1924   -1.3175   -0.6046 C.ar      1 <0>        -0.0659
      3 C3          0.6006   -0.1844   -0.5931 C.ar      1 <0>        -0.1375
      4 C4          1.3239    0.1452    0.5382 C.ar      1 <0>        -0.0952
      5 C5          1.2566   -0.6568    1.6608 C.ar      1 <0>        -0.1544
      6 C6          0.4614   -1.7950    1.6524 C.ar      1 <0>         0.1672
      7 C7         -0.2684   -2.1203    0.5164 C.ar      1 <0>        -0.1209
      8 N1          0.3910   -2.6096    2.7882 N.am      1 <0>        -0.6855
      9 C8          0.2315   -3.9411    2.6536 C.2       1 <0>         0.7041
     10 O1          0.2463   -4.4465    1.5479 O.2       1 <0>        -0.5658
     11 N2          0.0555   -4.7123    3.7448 N.am      1 <0>        -0.7412
     12 C9         -0.1179   -6.1597    3.5985 C.3       1 <0>         0.1391
     13 C10        -0.2973   -6.7939    4.9793 C.3       1 <0>         0.2118
     14 H1          0.6183   -6.6702    5.5576 H         1 <0>         0.0905
     15 C11        -0.5977   -8.2623    4.8223 C.ar      1 <0>        -0.1605
     16 C12         0.3697   -9.2120    5.1141 C.ar      1 <0>        -0.0605
     17 C13         0.0487  -10.5512    4.9550 C.ar      1 <0>        -0.1709
     18 C14        -1.2160  -10.8930    4.5141 C.ar      1 <0>         0.1058
     19 N3         -2.1109   -9.9626    4.2457 N.ar      1 <0>        -0.4828
     20 C15        -1.8426   -8.6796    4.3914 C.ar      1 <0>         0.1293
     21 N4         -1.4074   -6.1401    5.6766 N.pl3     1 <0>        -0.6273
     22 C16        -2.3099   -5.1529    5.0780 C.3       1 <0>         0.1169
     23 C17        -3.2911   -4.7723    6.1987 C.3       1 <0>        -0.0836
     24 C18        -2.8530   -5.6017    7.3848 C.ar      1 <0>        -0.1666
     25 C19        -1.7635   -6.3710    7.0062 C.ar      1 <0>         0.1977
     26 C20        -1.1830   -7.2302    7.9414 C.ar      1 <0>        -0.1726
     27 C21        -1.6922   -7.3123    9.2200 C.ar      1 <0>        -0.0769
     28 C22        -2.7817   -6.5439    9.5861 C.ar      1 <0>        -0.1677
     29 C23        -3.3565   -5.6839    8.6684 C.ar      1 <0>        -0.0631
     30 H2         -1.9613   -1.2025   -1.7929 H         1 <0>         0.0716
     31 H3         -0.4483   -1.3186   -2.7233 H         1 <0>         0.0681
     32 H4         -1.0971   -2.7551   -1.8965 H         1 <0>         0.0681
     33 H5          0.6552    0.4441   -1.4697 H         1 <0>         0.1231
     34 H6          1.9425    1.0305    0.5439 H         1 <0>         0.1266
     35 H7          1.8221   -0.3990    2.5441 H         1 <0>         0.1237
     36 H8         -0.8916   -3.0023    0.5084 H         1 <0>         0.1347
     37 H9          0.4571   -2.2159    3.6722 H         1 <0>         0.4067
     38 H10         0.0436   -4.3091    4.6269 H         1 <0>         0.4020
     39 H11        -0.9993   -6.3603    2.9893 H         1 <0>         0.0797
     40 H12         0.7621   -6.5841    3.1152 H         1 <0>         0.0881
     41 H13         1.3500   -8.9154    5.4567 H         1 <0>         0.1358
     42 H14         0.7777  -11.3178    5.1726 H         1 <0>         0.1384
     43 H15        -1.4739  -11.9341    4.3876 H         1 <0>         0.1577
     44 H16        -2.6030   -7.9463    4.1667 H         1 <0>         0.1490
     45 H17        -1.7493   -4.2767    4.7523 H         1 <0>         0.0719
     46 H18        -2.8475   -5.5925    4.2378 H         1 <0>         0.0656
     47 H19        -3.2128   -3.7095    6.4280 H         1 <0>         0.0838
     48 H20        -4.3119   -5.0264    5.9131 H         1 <0>         0.0840
     49 H21        -0.3318   -7.8332    7.6619 H         1 <0>         0.1123
     50 H22        -1.2387   -7.9795    9.9380 H         1 <0>         0.1211
     51 H23        -3.1789   -6.6104   10.5883 H         1 <0>         0.1215
     52 H24        -4.2084   -5.0839    8.9524 H         1 <0>         0.1195
@<TRIPOS>BOND
     1    1    2 1
     2    1   30 1
     3    1   31 1
     4    1   32 1
     5    2    7 ar
     6    2    3 ar
     7    3    4 ar
     8    3   33 1
     9    4    5 ar
    10    4   34 1
    11    5    6 ar
    12    5   35 1
    13    6    7 ar
    14    6    8 1
    15    7   36 1
    16    8    9 am
    17    8   37 1
    18    9   10 2
    19    9   11 am
    20   11   12 1
    21   11   38 1
    22   12   13 1
    23   12   39 1
    24   12   40 1
    25   13   14 1
    26   13   15 1
    27   13   21 1
    28   15   20 ar
    29   15   16 ar
    30   16   17 ar
    31   16   41 1
    32   17   18 ar
    33   17   42 1
    34   18   19 ar
    35   18   43 1
    36   19   20 ar
    37   20   44 1
    38   21   25 1
    39   21   22 1
    40   22   23 1
    41   22   45 1
    42   22   46 1
    43   23   24 1
    44   23   47 1
    45   23   48 1
    46   24   29 ar
    47   24   25 ar
    48   25   26 ar
    49   26   27 ar
    50   26   49 1
    51   27   28 ar
    52   27   50 1
    53   28   29 ar
    54   28   51 1
    55   29   52 1
@<TRIPOS>MOLECULE
ZINC53510937
   52    55     0     0     0
SMALL
USER_CHARGES

@<TRIPOS>ATOM
      1 C1         -0.0184    1.5028    0.0103 C.3       1 <0>        -0.1128
      2 C2          0.0021   -0.0041    0.0020 C.ar      1 <0>        -0.0799
      3 C3          0.0057   -0.6851   -1.1945 C.ar      1 <0>        -0.0509
      4 C4          0.0246   -2.0824   -1.2013 C.ar      1 <0>        -0.1247
      5 C5          0.0399   -2.7838    0.0076 C.ar      1 <0>        -0.0827
      6 C6          0.0362   -2.0968    1.2002 C.ar      1 <0>        -0.1103
      7 C7          0.0230   -0.7053    1.2034 C.ar      1 <0>         0.1911
      8 N1          0.0255   -0.0123    2.4133 N.am      1 <0>        -0.5943
      9 C8         -1.1712    0.3902    3.1672 C.3       1 <0>         0.0926
     10 C9         -0.6028    1.1124    4.4041 C.3       1 <0>         0.0923
     11 N2          0.8538    1.0403    4.2158 N.am      1 <0>        -0.7389
     12 C10         1.1185    0.3875    3.0764 C.2       1 <0>         0.7036
     13 O1          2.2483    0.1802    2.6783 O.2       1 <0>        -0.5712
     14 C11         0.0281   -2.8157   -2.4820 C.2       1 <0>         0.5646
     15 O2          0.0144   -2.2042   -3.5328 O.2       1 <0>        -0.5243
     16 N3          0.0464   -4.1634   -2.4868 N.am      1 <0>        -0.7216
     17 C12         0.0498   -4.8914   -3.7581 C.3       1 <0>         0.2399
     18 H1         -0.5508   -4.3495   -4.4887 H         1 <0>         0.1117
     19 C13         1.4645   -5.0143   -4.2628 C.2       1 <0>        -0.1505
     20 C14         1.9321   -4.8961   -5.5295 C.2       1 <0>        -0.1449
     21 C15         3.2862   -5.0493   -5.7611 C.2       1 <0>        -0.1546
     22 C16         4.1064   -5.3132   -4.7147 C.2       1 <0>        -0.1744
     23 S1          2.9603   -5.3456   -3.3463 S.3       1 <0>         0.0389
     24 C17        -0.5398   -6.2875   -3.5479 C.3       1 <0>        -0.0958
     25 C18        -0.6080   -7.0402   -4.8927 C.3       1 <0>        -0.1129
     26 C19        -1.9284   -7.8458   -4.8106 C.3       1 <0>        -0.1254
     27 C20        -2.8816   -6.8664   -4.0817 C.3       1 <0>        -0.1254
     28 C21        -1.9854   -6.1769   -3.0322 C.3       1 <0>        -0.1220
     29 H2          1.0042    1.8801    0.0026 H         1 <0>         0.0757
     30 H3         -0.5455    1.8639   -0.8728 H         1 <0>         0.0733
     31 H4         -0.5286    1.8543    0.9071 H         1 <0>         0.0659
     32 H5         -0.0065   -0.1401   -2.1268 H         1 <0>         0.1429
     33 H6          0.0542   -3.8637    0.0059 H         1 <0>         0.1308
     34 H7          0.0479   -2.6382    2.1347 H         1 <0>         0.1327
     35 H8         -1.7853    1.0695    2.5760 H         1 <0>         0.0871
     36 H9         -1.7473   -0.4855    3.4665 H         1 <0>         0.0873
     37 H10        -0.9347    2.1505    4.4271 H         1 <0>         0.0871
     38 H11        -0.8966    0.5955    5.3176 H         1 <0>         0.0869
     39 H12         1.5177    1.4039    4.8224 H         1 <0>         0.4333
     40 H13         0.0573   -4.6513   -1.6485 H         1 <0>         0.4019
     41 H14         1.2569   -4.6858   -6.3457 H         1 <0>         0.1318
     42 H15         3.6847   -4.9605   -6.7610 H         1 <0>         0.1335
     43 H16         5.1762   -5.4614   -4.7095 H         1 <0>         0.1847
     44 H17         0.0686   -6.8463   -2.8368 H         1 <0>         0.0814
     45 H18        -0.6424   -6.3352   -5.7233 H         1 <0>         0.0704
     46 H19         0.2434   -7.7128   -4.9970 H         1 <0>         0.0694
     47 H20        -2.3019   -8.0780   -5.8079 H         1 <0>         0.0684
     48 H21        -1.7899   -8.7561   -4.2271 H         1 <0>         0.0679
     49 H22        -3.2831   -6.1333   -4.7812 H         1 <0>         0.0664
     50 H23        -3.6894   -7.4122   -3.5941 H         1 <0>         0.0664
     51 H24        -2.0787   -6.6829   -2.0713 H         1 <0>         0.0680
     52 H25        -2.2669   -5.1287   -2.9317 H         1 <0>         0.0694
@<TRIPOS>BOND
     1    1    2 1
     2    1   29 1
     3    1   30 1
     4    1   31 1
     5    2    7 ar
     6    2    3 ar
     7    3    4 ar
     8    3   32 1
     9    4    5 ar
    10    4   14 1
    11    5    6 ar
    12    5   33 1
    13    6    7 ar
    14    6   34 1
    15    7    8 1
    16    8   12 am
    17    8    9 1
    18    9   10 1
    19    9   35 1
    20    9   36 1
    21   10   11 1
    22   10   37 1
    23   10   38 1
    24   11   12 am
    25   11   39 1
    26   12   13 2
    27   14   15 2
    28   14   16 am
    29   16   17 1
    30   16   40 1
    31   17   18 1
    32   17   19 1
    33   17   24 1
    34   19   23 1
    35   19   20 2
    36   20   21 1
    37   20   41 1
    38   21   22 2
    39   21   42 1
    40   22   23 1
    41   22   43 1
    42   24   28 1
    43   24   25 1
    44   24   44 1
    45   25   26 1
    46   25   45 1
    47   25   46 1
    48   26   27 1
    49   26   47 1
    50   26   48 1
    51   27   28 1
    52   27   49 1
    53   27   50 1
    54   28   51 1
    55   28   52 1
@<TRIPOS>MOLECULE
ZINC07782418
   36    37     0     0     0
SMALL
USER_CHARGES

@<TRIPOS>ATOM
      1 C1         -0.0167    1.3794    0.0096 C.ar      1 <0>        -0.0764
      2 C2          1.1676    2.0948    0.0022 C.ar      1 <0>        -0.1096
      3 C3          2.3785    1.4321   -0.0134 C.ar      1 <0>        -0.0006
      4 C4          2.4061    0.0340   -0.0212 C.ar      1 <0>        -0.0415
      5 C5          1.2048   -0.6817   -0.0131 C.ar      1 <0>        -0.0026
      6 C6          0.0021   -0.0041    0.0020 C.ar      1 <0>        -0.1118
      7 Cl1         1.2257   -2.4175   -0.0233 Cl        1 <0>        -0.0027
      8 C7          3.6943   -0.6813   -0.0384 C.2       1 <0>         0.0994
      9 N1          3.7160   -1.9802   -0.0456 N.2       1 <0>        -0.1946
     10 N2          4.9407   -2.6603   -0.0619 N.am      1 <0>        -0.5608
     11 C8          4.9632   -4.0079   -0.0693 C.2       1 <0>         0.5282
     12 O1          3.9218   -4.6326   -0.0619 O.2       1 <0>        -0.4745
     13 C9          6.2674   -4.7321   -0.0867 C.2       1 <0>         0.5166
     14 O2          7.3083   -4.1077   -0.0941 O.2       1 <0>        -0.5134
     15 N3          6.2899   -6.0797   -0.0942 N.am      1 <0>        -0.6927
     16 C10         7.5706   -6.7908   -0.1112 C.3       1 <0>         0.1603
     17 C11         7.3199   -8.2768   -0.1166 C.ar      1 <0>        -0.1130
     18 C12         7.2118   -8.9636    1.0783 C.ar      1 <0>        -0.0839
     19 C13         6.9819  -10.3265    1.0740 C.ar      1 <0>        -0.1117
     20 C14         6.8601  -11.0034   -0.1265 C.ar      1 <0>        -0.0238
     21 C15         6.9684  -10.3156   -1.3220 C.ar      1 <0>        -0.1117
     22 C16         7.1927   -8.9517   -1.3164 C.ar      1 <0>        -0.0839
     23 Cl2         6.5719  -12.7153   -0.1327 Cl        1 <0>        -0.0630
     24 Cl3         3.8631    2.3320   -0.0239 Cl        1 <0>        -0.0473
     25 H1         -0.9608    1.9036    0.0260 H         1 <0>         0.1470
     26 H2          1.1446    3.1745    0.0082 H         1 <0>         0.1468
     27 H3         -0.9266   -0.5553    0.0083 H         1 <0>         0.1456
     28 H4          4.6204   -0.1258   -0.0450 H         1 <0>         0.1346
     29 H5          5.7725   -2.1614   -0.0678 H         1 <0>         0.3992
     30 H6          5.4581   -6.5787   -0.0883 H         1 <0>         0.4169
     31 H7          8.1284   -6.5132   -1.0055 H         1 <0>         0.0884
     32 H8          8.1468   -6.5228    0.7743 H         1 <0>         0.0884
     33 H9          7.3072   -8.4352    2.0153 H         1 <0>         0.1362
     34 H10         6.8978  -10.8630    2.0075 H         1 <0>         0.1380
     35 H11         6.8737  -10.8435   -2.2594 H         1 <0>         0.1380
     36 H12         7.2725   -8.4138   -2.2495 H         1 <0>         0.1362
@<TRIPOS>BOND
     1    1    6 ar
     2    1    2 ar
     3    1   25 1
     4    2    3 ar
     5    2   26 1
     6    3    4 ar
     7    3   24 1
     8    4    5 ar
     9    4    8 1
    10    5    6 ar
    11    5    7 1
    12    6   27 1
    13    8    9 2
    14    8   28 1
    15    9   10 1
    16   10   11 am
    17   10   29 1
    18   11   12 2
    19   11   13 1
    20   13   14 2
    21   13   15 am
    22   15   16 1
    23   15   30 1
    24   16   17 1
    25   16   31 1
    26   16   32 1
    27   17   22 ar
    28   17   18 ar
    29   18   19 ar
    30   18   33 1
    31   19   20 ar
    32   19   34 1
    33   20   21 ar
    34   20   23 1
    35   21   22 ar
    36   21   35 1
    37   22   36 1
@<TRIPOS>MOLECULE
ZINC55543231
   50    51     0     0     0
SMALL
USER_CHARGES

@<TRIPOS>ATOM
      1 C1          0.2210    1.5366   -0.1657 C.3       1 <0>        -0.1282
      2 C2         -0.0251    0.0379    0.0199 C.3       1 <0>        -0.0862
      3 C3          0.8163   -0.4761    1.1898 C.3       1 <0>        -0.1555
      4 C4         -1.5073   -0.2029    0.3132 C.3       1 <0>        -0.1581
      5 C5          0.3634   -0.6946   -1.2384 C.2       1 <0>         0.5274
      6 O1          0.9199   -0.1014   -2.1381 O.2       1 <0>        -0.5351
      7 N1          0.0926   -2.0089   -1.3640 N.am      1 <0>        -0.6132
      8 C6         -0.4698   -2.7681   -0.2389 C.3       1 <0>         0.0847
      9 C7          0.4137   -3.9923    0.0206 C.3       1 <0>        -0.1182
     10 C8          0.5552   -4.7978   -1.2730 C.3       1 <0>        -0.0932
     11 C9          1.2281   -3.9344   -2.3426 C.3       1 <0>        -0.1287
     12 C10         0.3485   -2.7082   -2.6306 C.3       1 <0>         0.1122
     13 C11         1.3959   -6.0212   -1.0133 C.2       1 <0>         0.5168
     14 O2          1.8383   -6.2285    0.0967 O.2       1 <0>        -0.5276
     15 N2          1.6562   -6.8850   -2.0146 N.am      1 <0>        -0.5220
     16 N3          2.4378   -8.0223   -1.7732 N.pl3     1 <0>        -0.5376
     17 C12         2.7076   -8.9175   -2.8109 C.ar      1 <0>         0.2653
     18 C13         2.2064   -8.6785   -4.0844 C.ar      1 <0>        -0.2035
     19 C14         2.4753   -9.5653   -5.1082 C.ar      1 <0>        -0.0314
     20 C15         3.2427  -10.6904   -4.8669 C.ar      1 <0>        -0.1754
     21 C16         3.7427  -10.9314   -3.6005 C.ar      1 <0>        -0.0176
     22 C17         3.4822  -10.0455   -2.5733 C.ar      1 <0>        -0.2572
     23 C18         4.0332  -10.3056   -1.1949 C.3       1 <0>         0.5087
     24 F1          4.7747  -11.4919   -1.2053 F         1 <0>        -0.1723
     25 F2          4.8595   -9.2426   -0.8148 F         1 <0>        -0.1775
     26 F3          2.9770  -10.4237   -0.2852 F         1 <0>        -0.1776
     27 H1          1.2770    1.7082   -0.3746 H         1 <0>         0.0639
     28 H2         -0.3785    1.9028   -0.9991 H         1 <0>         0.0607
     29 H3         -0.0600    2.0664    0.7445 H         1 <0>         0.0635
     30 H4          0.3939   -0.1151    2.1275 H         1 <0>         0.0725
     31 H5          0.8154   -1.5661    1.1867 H         1 <0>         0.0696
     32 H6          1.8392   -0.1133    1.0886 H         1 <0>         0.0647
     33 H7         -2.0930    0.0015   -0.5831 H         1 <0>         0.0611
     34 H8         -1.6542   -1.2401    0.6144 H         1 <0>         0.0741
     35 H9         -1.8307    0.4582    1.1172 H         1 <0>         0.0704
     36 H10        -0.4932   -2.1392    0.6510 H         1 <0>         0.1175
     37 H11        -1.4806   -3.0928   -0.4861 H         1 <0>         0.0744
     38 H12         1.3984   -3.6660    0.3554 H         1 <0>         0.0798
     39 H13        -0.0443   -4.6154    0.7888 H         1 <0>         0.0895
     40 H14        -0.4318   -5.1028   -1.6207 H         1 <0>         0.1083
     41 H15         2.2050   -3.6085   -1.9854 H         1 <0>         0.0787
     42 H16         1.3497   -4.5161   -3.2563 H         1 <0>         0.0799
     43 H17        -0.5969   -3.0281   -3.0688 H         1 <0>         0.0731
     44 H18         0.8652   -2.0397   -3.3192 H         1 <0>         0.0997
     45 H19         1.3024   -6.7192   -2.9025 H         1 <0>         0.4235
     46 H20         2.7916   -8.1881   -0.8854 H         1 <0>         0.4351
     47 H21         1.6068   -7.8004   -4.2735 H         1 <0>         0.1273
     48 H22         2.0857   -9.3803   -6.0983 H         1 <0>         0.1359
     49 H23         3.4516  -11.3823   -5.6693 H         1 <0>         0.1358
     50 H24         4.3410  -11.8113   -3.4153 H         1 <0>         0.1424
@<TRIPOS>BOND
     1    1    2 1
     2    1   27 1
     3    1   28 1
     4    1   29 1
     5    2    3 1
     6    2    4 1
     7    2    5 1
     8    3   30 1
     9    3   31 1
    10    3   32 1
    11    4   33 1
    12    4   34 1
    13    4   35 1
    14    5    6 2
    15    5    7 am
    16    7   12 1
    17    7    8 1
    18    8    9 1
    19    8   36 1
    20    8   37 1
    21    9   10 1
    22    9   38 1
    23    9   39 1
    24   10   11 1
    25   10   13 1
    26   10   40 1
    27   11   12 1
    28   11   41 1
    29   11   42 1
    30   12   43 1
    31   12   44 1
    32   13   14 2
    33   13   15 am
    34   15   16 1
    35   15   45 1
    36   16   17 1
    37   16   46 1
    38   17   22 ar
    39   17   18 ar
    40   18   19 ar
    41   18   47 1
    42   19   20 ar
    43   19   48 1
    44   20   21 ar
    45   20   49 1
    46   21   22 ar
    47   21   50 1
    48   22   23 1
    49   23   24 1
    50   23   25 1
    51   23   26 1
@<TRIPOS>MOLECULE
ZINC33368092
   59    62     0     0     0
SMALL
USER_CHARGES
ethyl 2-[(2S,3E)-3-[(3-ethoxyphenyl)-hydroxy-methylene]-2-(3-hydroxyphenyl)-4,5-dioxo-pyrrolidin-1-yl]-4-methyl-thiazole-5-carboxylate
@<TRIPOS>ATOM
      1 C1         -9.9838   -6.5249    1.8345 C.3       1 <0>        -0.1528
      2 C2         -8.7010   -6.3932    1.0112 C.3       1 <0>         0.0539
      3 O1         -8.1647   -5.0784    1.1719 O.3       1 <0>        -0.3191
      4 C3         -7.0169   -4.7940    0.5020 C.ar      1 <0>         0.1109
      5 C4         -6.4196   -5.7633   -0.2940 C.ar      1 <0>        -0.2050
      6 C5         -5.2513   -5.4812   -0.9783 C.ar      1 <0>        -0.0920
      7 C6         -4.6732   -4.2328   -0.8801 C.ar      1 <0>        -0.0872
      8 C7         -5.2632   -3.2517   -0.0770 C.ar      1 <0>        -0.0394
      9 C8         -6.4441   -3.5395    0.6136 C.ar      1 <0>        -0.1155
     10 C9         -4.6460   -1.9183    0.0361 C.2       1 <0>         0.4091
     11 C10        -3.3090   -1.8020    0.3545 C.2       1 <0>        -0.4896
     12 C11        -2.4880   -0.5334    0.3777 C.3       1 <0>         0.2645
     13 H1         -2.8840    0.2022    1.0933 H         1 <0>         0.0899
     14 N1         -1.1296   -0.9199    0.7700 N.am      1 <0>        -0.4970
     15 C12        -1.0949   -2.2469    0.9771 C.2       1 <0>         0.4770
     16 O2         -0.1114   -2.8723    1.3170 O.2       1 <0>        -0.4547
     17 C13        -2.4369   -2.8381    0.7284 C.2       1 <0>         0.3818
     18 O3         -2.7290   -4.0157    0.8311 O.3       1 <0>        -0.4758
     19 C14        -0.0587   -0.0574    0.9101 C.2       1 <0>         0.3683
     20 N2          1.1870   -0.3341    1.2643 N.2       1 <0>        -0.5502
     21 C15         2.0971    0.5994    1.3534 C.2       1 <0>         0.2143
     22 C16         1.7169    1.9033    1.0629 C.2       1 <0>        -0.3271
     23 S1         -0.0087    1.6610    0.6658 S.3       1 <0>         0.1486
     24 C17         2.5083    3.1320    1.0773 C.2       1 <0>         0.5735
     25 O4          3.6864    3.0933    1.3786 O.2       1 <0>        -0.5049
     26 O5          1.9323    4.3092    0.7564 O.3       1 <0>        -0.3479
     27 C18         2.7652    5.4699    0.7914 C.3       1 <0>         0.0611
     28 C19         1.9430    6.6996    0.4009 C.3       1 <0>        -0.1545
     29 C20         3.5116    0.2721    1.7575 C.3       1 <0>        -0.1080
     30 C21        -2.4710    0.0918   -0.9934 C.ar      1 <0>        -0.0434
     31 C22        -1.6376   -0.4151   -1.9735 C.ar      1 <0>        -0.1477
     32 C23        -1.6203    0.1556   -3.2325 C.ar      1 <0>        -0.0829
     33 C24        -2.4361    1.2344   -3.5145 C.ar      1 <0>        -0.1643
     34 C25        -3.2727    1.7451   -2.5329 C.ar      1 <0>         0.1526
     35 C26        -3.2920    1.1671   -1.2716 C.ar      1 <0>        -0.1652
     36 O6         -4.0764    2.8058   -2.8079 O.3       1 <0>        -0.5142
     37 O7         -5.3892   -0.8106   -0.1720 O.2       1 <0>        -0.6170
     38 H2        -10.3966   -7.5370    1.7108 H         1 <0>         0.0749
     39 H3        -10.7194   -5.7840    1.4882 H         1 <0>         0.0653
     40 H4         -9.7577   -6.3484    2.8964 H         1 <0>         0.0655
     41 H5         -7.9654   -7.1341    1.3575 H         1 <0>         0.0594
     42 H6         -8.9271   -6.5697   -0.0507 H         1 <0>         0.0587
     43 H7         -6.8698   -6.7414   -0.3791 H         1 <0>         0.1199
     44 H8         -4.7923   -6.2398   -1.5950 H         1 <0>         0.1200
     45 H9         -3.7633   -4.0145   -1.4194 H         1 <0>         0.1199
     46 H10        -6.9078   -2.7851    1.2319 H         1 <0>         0.1290
     47 H11         3.1651    5.6037    1.8074 H         1 <0>         0.0689
     48 H12         3.5976    5.3454    0.0832 H         1 <0>         0.0690
     49 H13         2.5842    7.5930    0.4279 H         1 <0>         0.0796
     50 H14         1.1106    6.8241    1.1092 H         1 <0>         0.0677
     51 H15         1.5431    6.5658   -0.6151 H         1 <0>         0.0681
     52 H16         4.1118    1.1938    1.7705 H         1 <0>         0.1055
     53 H17         3.9442   -0.4370    1.0363 H         1 <0>         0.0817
     54 H18         3.5112   -0.1794    2.7606 H         1 <0>         0.0817
     55 H19        -0.9993   -1.2586   -1.7552 H         1 <0>         0.1099
     56 H20        -0.9688   -0.2424   -3.9965 H         1 <0>         0.1223
     57 H21        -2.4228    1.6795   -4.4984 H         1 <0>         0.1215
     58 H22        -3.9460    1.5599   -0.5071 H         1 <0>         0.1309
     59 H23        -4.7394    3.2100   -2.0288 H         1 <0>         0.4304
@<TRIPOS>BOND
     1    1    2 1
     2    1   38 1
     3    1   39 1
     4    1   40 1
     5    2    3 1
     6    2   41 1
     7    2   42 1
     8    3    4 1
     9    4    9 ar
    10    4    5 ar
    11    5    6 ar
    12    5   43 1
    13    6    7 ar
    14    6   44 1
    15    7    8 ar
    16    7   45 1
    17    8    9 ar
    18    8   10 1
    19    9   46 1
    20   10   11 1
    21   10   37 2
    22   11   17 2
    23   11   12 1
    24   12   13 1
    25   12   14 1
    26   12   30 1
    27   14   15 am
    28   14   19 1
    29   15   16 2
    30   15   17 1
    31   17   18 1
    32   19   23 1
    33   19   20 2
    34   20   21 1
    35   21   22 2
    36   21   29 1
    37   22   23 1
    38   22   24 1
    39   24   25 2
    40   24   26 1
    41   26   27 1
    42   27   28 1
    43   27   47 1
    44   27   48 1
    45   28   49 1
    46   28   50 1
    47   28   51 1
    48   29   52 1
    49   29   53 1
    50   29   54 1
    51   30   35 ar
    52   30   31 ar
    53   31   32 ar
    54   31   55 1
    55   32   33 ar
    56   32   56 1
    57   33   34 ar
    58   33   57 1
    59   34   35 ar
    60   34   36 1
    61   35   58 1
    62   36   59 1
@<TRIPOS>MOLECULE
ZINC35702102
   61    64     0     0     0
SMALL
USER_CHARGES

@<TRIPOS>ATOM
      1 C1         -0.2748    1.2370    0.3052 C.3       1 <0>        -0.1049
      2 C2         -0.1488   -0.2620    0.2151 C.2       1 <0>         0.2355
      3 C3         -1.2843   -1.0405    0.1203 C.2       1 <0>        -0.3819
      4 C4         -1.1065   -2.5398    0.0323 C.3       1 <0>         0.2685
      5 H1         -1.5760   -2.8797   -0.8908 H         1 <0>         0.0685
      6 N1          0.2871   -3.0585    0.0550 N.pl3     1 <0>        -0.5233
      7 C5          0.6839   -4.3793   -0.0134 C.2       1 <0>         0.2322
      8 C6          2.0095   -4.6382    0.0228 C.2       1 <0>        -0.3075
      9 S1          2.7015   -3.0017    0.1546 S.3       1 <0>         0.1144
     10 C7          1.2745   -2.1182    0.1542 C.2       1 <0>         0.3239
     11 N2          1.0506   -0.8224    0.2220 N.2       1 <0>        -0.5947
     12 C8         -0.3010   -5.4652   -0.1213 C.2       1 <0>        -0.4697
     13 C9          0.1028   -6.7488   -0.0632 C.2       1 <0>         0.5033
     14 O1          1.4252   -7.0416   -0.0141 O.3       1 <0>        -0.7044
     15 N3         -0.8331   -7.7693   -0.0537 N.pl3     1 <0>        -0.7494
     16 C10        -0.4007   -9.1582    0.1202 C.3       1 <0>         0.1341
     17 C11        -1.6048  -10.0899   -0.0308 C.3       1 <0>         0.0677
     18 H2         -2.3960   -9.7854    0.6543 H         1 <0>         0.0806
     19 C12        -1.1827  -11.5442    0.2700 C.3       1 <0>        -0.1476
     20 C13        -1.9782  -12.3455   -0.7963 C.3       1 <0>        -0.1557
     21 C14        -1.9685  -11.3477   -1.9818 C.3       1 <0>         0.0491
     22 O2         -2.0863  -10.0471   -1.3791 O.3       1 <0>        -0.3724
     23 C15        -1.8519   -3.1638    1.1838 C.ar      1 <0>        -0.0297
     24 C16        -1.3334   -3.0912    2.4632 C.ar      1 <0>        -0.0834
     25 C17        -2.0171   -3.6635    3.5196 C.ar      1 <0>        -0.0669
     26 C18        -3.2195   -4.3081    3.2966 C.ar      1 <0>        -0.1873
     27 C19        -3.7384   -4.3799    2.0173 C.ar      1 <0>        -0.0674
     28 C20        -3.0568   -3.8038    0.9617 C.ar      1 <0>        -0.0986
     29 C21        -3.9644   -4.9329    4.4480 C.3       1 <0>         0.5105
     30 F1         -4.8393   -3.9927    5.0026 F         1 <0>        -0.1801
     31 F2         -4.6939   -6.0347    3.9886 F         1 <0>        -0.1799
     32 F3         -3.0513   -5.3515    5.4219 F         1 <0>        -0.1794
     33 C22        -2.5617   -0.4602    0.1065 C.2       1 <0>         0.6067
     34 O3         -3.2593   -0.4980    1.1059 O.2       1 <0>        -0.5385
     35 N4         -3.0176    0.1390   -1.0113 N.am      1 <0>        -0.6230
     36 C23        -4.2957    0.8548   -0.9895 C.3       1 <0>         0.0821
     37 C24        -2.2351    0.0747   -2.2481 C.3       1 <0>         0.0826
     38 H3          0.7183    1.6820    0.3683 H         1 <0>         0.0775
     39 H4         -0.7856    1.6127   -0.5814 H         1 <0>         0.0734
     40 H5         -0.8481    1.5007    1.1940 H         1 <0>         0.0734
     41 H6          2.5178   -5.5903   -0.0174 H         1 <0>         0.2350
     42 H7         -1.3484   -5.2338   -0.2471 H         1 <0>         0.0840
     43 H8         -1.7750   -7.5646   -0.1622 H         1 <0>         0.3865
     44 H9          0.3457   -9.4037   -0.6353 H         1 <0>         0.0583
     45 H10         0.0326   -9.2823    1.1127 H         1 <0>         0.0554
     46 H11        -0.1093  -11.6731    0.1311 H         1 <0>         0.0815
     47 H12        -1.4824  -11.8347    1.2769 H         1 <0>         0.0821
     48 H13        -1.4639  -13.2704   -1.0572 H         1 <0>         0.0809
     49 H14        -2.9954  -12.5454   -0.4594 H         1 <0>         0.0760
     50 H15        -1.0323  -11.4259   -2.5345 H         1 <0>         0.0590
     51 H16        -2.8153  -11.5360   -2.6418 H         1 <0>         0.0811
     52 H17        -0.3940   -2.5876    2.6374 H         1 <0>         0.1168
     53 H18        -1.6117   -3.6074    4.5190 H         1 <0>         0.1283
     54 H19        -4.6776   -4.8838    1.8431 H         1 <0>         0.1292
     55 H20        -3.4641   -3.8567   -0.0372 H         1 <0>         0.1236
     56 H21        -4.7288    0.7945    0.0089 H         1 <0>         0.0845
     57 H22        -4.1313    1.8999   -1.2518 H         1 <0>         0.0535
     58 H23        -4.9777    0.4024   -1.7094 H         1 <0>         0.0534
     59 H24        -2.5888   -0.7559   -2.8590 H         1 <0>         0.0512
     60 H25        -2.3511    1.0072   -2.8004 H         1 <0>         0.0637
     61 H26        -1.1831   -0.0752   -2.0051 H         1 <0>         0.0778
@<TRIPOS>BOND
     1    1    2 1
     2    1   38 1
     3    1   39 1
     4    1   40 1
     5    2   11 1
     6    2    3 2
     7    3    4 1
     8    3   33 1
     9    4    5 1
    10    4    6 1
    11    4   23 1
    12    6   10 1
    13    6    7 1
    14    7    8 2
    15    7   12 1
    16    8    9 1
    17    8   41 1
    18    9   10 1
    19   10   11 2
    20   12   13 2
    21   12   42 1
    22   13   14 1
    23   13   15 1
    24   15   16 1
    25   15   43 1
    26   16   17 1
    27   16   44 1
    28   16   45 1
    29   17   18 1
    30   17   22 1
    31   17   19 1
    32   19   20 1
    33   19   46 1
    34   19   47 1
    35   20   21 1
    36   20   48 1
    37   20   49 1
    38   21   22 1
    39   21   50 1
    40   21   51 1
    41   23   28 ar
    42   23   24 ar
    43   24   25 ar
    44   24   52 1
    45   25   26 ar
    46   25   53 1
    47   26   27 ar
    48   26   29 1
    49   27   28 ar
    50   27   54 1
    51   28   55 1
    52   29   30 1
    53   29   31 1
    54   29   32 1
    55   33   34 2
    56   33   35 am
    57   35   36 1
    58   35   37 1
    59   36   56 1
    60   36   57 1
    61   36   58 1
    62   37   59 1
    63   37   60 1
    64   37   61 1
@<TRIPOS>MOLECULE
ZINC36499701
   67    70     0     0     0
SMALL
USER_CHARGES

@<TRIPOS>ATOM
      1 C1          0.0649    0.1814    1.3870 C.3       1 <0>        -0.1453
      2 C2          0.2931   -0.1872   -0.0802 C.3       1 <0>        -0.0884
      3 H1         -0.5791    0.1009   -0.6671 H         1 <0>         0.1210
      4 C3          0.5082   -1.6742   -0.1970 C.ar      1 <0>        -0.0693
      5 C4          1.6591   -2.2480    0.3100 C.ar      1 <0>        -0.0873
      6 C5          1.8564   -3.6120    0.2029 C.ar      1 <0>        -0.1153
      7 C6          0.9026   -4.4023   -0.4107 C.ar      1 <0>        -0.1239
      8 C7         -0.2488   -3.8287   -0.9168 C.ar      1 <0>        -0.1232
      9 C8         -0.4481   -2.4652   -0.8059 C.ar      1 <0>        -0.1109
     10 C9          1.5270    0.5493   -0.6053 C.3       1 <0>         0.1386
     11 H2          2.4171    0.1716   -0.1020 H         1 <0>         0.1129
     12 C10         1.3846    2.0248   -0.3339 C.2       1 <0>         0.5211
     13 O1          0.8596    2.7448   -1.1566 O.2       1 <0>        -0.5252
     14 N1          1.8407    2.5443    0.8231 N.am      1 <0>        -0.7252
     15 C11         1.6011    3.9550    1.1373 C.3       1 <0>         0.1488
     16 C12         2.6912    4.8134    0.4925 C.3       1 <0>        -0.1321
     17 C13         2.4410    6.2867    0.8207 C.3       1 <0>        -0.1160
     18 C14         2.4682    6.4830    2.3378 C.3       1 <0>        -0.1217
     19 C15         1.3781    5.6246    2.9827 C.3       1 <0>        -0.1142
     20 C16         1.6283    4.1513    2.6545 C.3       1 <0>        -0.1267
     21 N2          1.6508    0.3279   -2.0481 N.am      1 <0>        -0.5902
     22 C17         0.7162    0.9760   -2.9715 C.3       1 <0>         0.1706
     23 C18        -0.6900    0.5373   -2.6531 C.2       1 <0>        -0.0055
     24 C19        -1.5664    1.2046   -1.8812 C.2       1 <0>        -0.1972
     25 C20        -2.7542    0.4382   -1.8535 C.2       1 <0>        -0.2199
     26 C21        -2.5325   -0.6516   -2.6102 C.2       1 <0>        -0.0452
     27 O2         -1.2825   -0.5834   -3.0966 O.3       1 <0>        -0.1623
     28 C22         2.6245   -0.4721   -2.5261 C.2       1 <0>         0.6106
     29 O3          3.3158   -1.1135   -1.7585 O.2       1 <0>        -0.5225
     30 C23         2.8517   -0.5695   -3.9806 C.ar      1 <0>        -0.2718
     31 C24         1.9622   -1.2871   -4.7841 C.ar      1 <0>         0.0288
     32 C25         2.1800   -1.3743   -6.1418 C.ar      1 <0>        -0.1826
     33 C26         3.2778   -0.7532   -6.7150 C.ar      1 <0>        -0.0079
     34 C27         4.1649   -0.0412   -5.9326 C.ar      1 <0>        -0.2406
     35 C28         3.9577    0.0622   -4.5650 C.ar      1 <0>         0.3310
     36 O4          4.8252    0.7665   -3.7958 O.3       1 <0>        -0.6569
     37 N3          1.2370   -2.1355   -6.9918 N.pl3     1 <0>         0.0724
     38 O5          0.2784   -2.6788   -6.4945 O.2       1 <0>        -0.2149
     39 O6          1.4255   -2.2137   -8.1835 O.3       1 <0>        -0.2200
     40 H3          0.9211   -0.1405    1.9799 H         1 <0>         0.0567
     41 H4         -0.0533    1.2613    1.4762 H         1 <0>         0.0613
     42 H5         -0.8355   -0.3138    1.7504 H         1 <0>         0.0620
     43 H6          2.4043   -1.6306    0.7894 H         1 <0>         0.1151
     44 H7          2.7560   -4.0602    0.5984 H         1 <0>         0.1158
     45 H8          1.0571   -5.4679   -0.4949 H         1 <0>         0.1150
     46 H9         -0.9938   -4.4461   -1.3965 H         1 <0>         0.1163
     47 H10        -1.3493   -2.0176   -1.1980 H         1 <0>         0.1175
     48 H11         2.3275    1.9842    1.4477 H         1 <0>         0.3995
     49 H12         0.6270    4.2533    0.7498 H         1 <0>         0.0871
     50 H13         3.6653    4.5152    0.8800 H         1 <0>         0.0631
     51 H14         2.6718    4.6736   -0.5884 H         1 <0>         0.0718
     52 H15         3.2176    6.8982    0.3612 H         1 <0>         0.0637
     53 H16         1.4669    6.5850    0.4331 H         1 <0>         0.0632
     54 H17         3.4423    6.1847    2.7254 H         1 <0>         0.0620
     55 H18         2.2900    7.5326    2.5716 H         1 <0>         0.0614
     56 H19         1.3975    5.7644    4.0635 H         1 <0>         0.0649
     57 H20         0.4040    5.9229    2.5951 H         1 <0>         0.0641
     58 H21         0.8517    3.5398    3.1139 H         1 <0>         0.0684
     59 H22         2.6024    3.8530    3.0420 H         1 <0>         0.0678
     60 H23         0.7920    2.0581   -2.8652 H         1 <0>         0.1359
     61 H24         0.9619    0.6933   -3.9951 H         1 <0>         0.0984
     62 H25        -1.3954    2.1451   -1.3785 H         1 <0>         0.1518
     63 H26        -3.6647    0.6810   -1.3257 H         1 <0>         0.1441
     64 H27        -3.2409   -1.4449   -2.7979 H         1 <0>         0.1978
     65 H28         1.1053   -1.7732   -4.3415 H         1 <0>         0.1284
     66 H29         3.4408   -0.8268   -7.7801 H         1 <0>         0.1279
     67 H30         5.0185    0.4399   -6.3867 H         1 <0>         0.1259
@<TRIPOS>BOND
     1    1    2 1
     2    1   40 1
     3    1   41 1
     4    1   42 1
     5    2    3 1
     6    2    4 1
     7    2   10 1
     8    4    9 ar
     9    4    5 ar
    10    5    6 ar
    11    5   43 1
    12    6    7 ar
    13    6   44 1
    14    7    8 ar
    15    7   45 1
    16    8    9 ar
    17    8   46 1
    18    9   47 1
    19   10   11 1
    20   10   12 1
    21   10   21 1
    22   12   13 2
    23   12   14 am
    24   14   15 1
    25   14   48 1
    26   15   20 1
    27   15   16 1
    28   15   49 1
    29   16   17 1
    30   16   50 1
    31   16   51 1
    32   17   18 1
    33   17   52 1
    34   17   53 1
    35   18   19 1
    36   18   54 1
    37   18   55 1
    38   19   20 1
    39   19   56 1
    40   19   57 1
    41   20   58 1
    42   20   59 1
    43   21   22 1
    44   21   28 am
    45   22   23 1
    46   22   60 1
    47   22   61 1
    48   23   27 1
    49   23   24 2
    50   24   25 1
    51   24   62 1
    52   25   26 2
    53   25   63 1
    54   26   27 1
    55   26   64 1
    56   28   29 2
    57   28   30 1
    58   30   35 ar
    59   30   31 ar
    60   31   32 ar
    61   31   65 1
    62   32   33 ar
    63   32   37 1
    64   33   34 ar
    65   33   66 1
    66   34   35 ar
    67   34   67 1
    68   35   36 1
    69   37   38 2
    70   37   39 1
@<TRIPOS>MOLECULE
ZINC39899075
   60    64     0     0     0
SMALL
USER_CHARGES

@<TRIPOS>ATOM
      1 C1         -0.2304   -4.3510   -4.6750 C.3       1 <0>         0.0288
      2 O1         -0.4518   -4.0329   -3.2996 O.3       1 <0>        -0.3006
      3 C2          0.1650   -2.9216   -2.8158 C.ar      1 <0>         0.1082
      4 C3          0.9048   -2.1133   -3.6639 C.ar      1 <0>        -0.1338
      5 C4          1.5308   -0.9838   -3.1706 C.ar      1 <0>        -0.0968
      6 C5          1.4210   -0.6580   -1.8315 C.ar      1 <0>        -0.1033
      7 C6          0.6848   -1.4604   -0.9799 C.ar      1 <0>        -0.1711
      8 C7          0.0498   -2.5906   -1.4691 C.ar      1 <0>         0.1153
      9 O2         -0.6798   -3.3777   -0.6339 O.3       1 <0>        -0.2980
     10 C8         -0.7541   -2.9765    0.7356 C.3       1 <0>         0.0861
     11 C9         -1.5981   -3.9616    1.5026 C.2       1 <0>        -0.1579
     12 C10        -1.1957   -4.3996    2.6698 C.2       1 <0>        -0.1683
     13 C11         2.3350   -0.1059   -4.0945 C.3       1 <0>         0.2497
     14 H1          2.7597    0.7314   -3.5406 H         1 <0>         0.1138
     15 C12         1.4667    0.4008   -5.2134 C.2       1 <0>        -0.1685
     16 C13         0.3410    1.1412   -5.5900 C.2       1 <0>         0.1129
     17 N1          0.2597    1.0938   -6.9052 N.2       1 <0>        -0.2196
     18 N2          1.2221    0.3972   -7.3960 N.pl3     1 <0>        -0.3326
     19 H2          1.3617    0.2278   -8.3409 H         1 <0>         0.4541
     20 C14         2.0191   -0.0690   -6.3894 C.2       1 <0>        -0.0630
     21 C15         3.2112   -0.8591   -6.0619 C.2       1 <0>         0.5996
     22 O3          3.9245   -1.4107   -6.8782 O.2       1 <0>        -0.5137
     23 N3          3.4048   -0.8864   -4.7296 N.am      1 <0>        -0.5905
     24 C16         4.4939   -1.5754   -4.0329 C.3       1 <0>         0.1826
     25 C17         4.0678   -2.9824   -3.7018 C.ar      1 <0>        -0.1291
     26 C18         3.4346   -3.2481   -2.5020 C.ar      1 <0>        -0.0606
     27 C19         3.0429   -4.5380   -2.1975 C.ar      1 <0>        -0.1519
     28 C20         3.2850   -5.5644   -3.0947 C.ar      1 <0>         0.1103
     29 C21         3.9192   -5.2971   -4.2961 C.ar      1 <0>        -0.1612
     30 C22         4.3053   -4.0056   -4.6007 C.ar      1 <0>        -0.0665
     31 F1          2.9029   -6.8258   -2.7979 F         1 <0>        -0.1379
     32 C23        -0.5908    1.8489   -4.6772 C.ar      1 <0>        -0.0279
     33 C24        -0.3145    1.9209   -3.3142 C.ar      1 <0>        -0.0723
     34 C25        -1.1848    2.5808   -2.4686 C.ar      1 <0>        -0.0426
     35 C26        -2.3318    3.1712   -2.9719 C.ar      1 <0>        -0.0854
     36 C27        -2.6145    3.1045   -4.3229 C.ar      1 <0>        -0.1332
     37 C28        -1.7463    2.4509   -5.1826 C.ar      1 <0>         0.1387
     38 O4         -2.0207    2.3902   -6.5120 O.3       1 <0>        -0.4774
     39 Cl1        -0.8400    2.6696   -0.7695 Cl        1 <0>        -0.0610
     40 H3         -0.6533   -3.5661   -5.3021 H         1 <0>         0.0511
     41 H4          0.8407   -4.4280   -4.8623 H         1 <0>         0.0524
     42 H5         -0.7096   -5.3014   -4.9099 H         1 <0>         0.1014
     43 H6          0.9928   -2.3660   -4.7103 H         1 <0>         0.1259
     44 H7          1.9118    0.2251   -1.4499 H         1 <0>         0.1319
     45 H8          0.6010   -1.2039    0.0658 H         1 <0>         0.1381
     46 H9          0.2490   -2.9488    1.1611 H         1 <0>         0.0675
     47 H10        -1.2036   -1.9855    0.8000 H         1 <0>         0.0731
     48 H11        -2.5347   -4.3065    1.0900 H         1 <0>         0.1202
     49 H12        -1.8005   -5.1056    3.2194 H         1 <0>         0.1087
     50 H13        -0.2591   -4.0547    3.0824 H         1 <0>         0.0996
     51 H14         5.3748   -1.6039   -4.6742 H         1 <0>         0.1025
     52 H15         4.7316   -1.0417   -3.1126 H         1 <0>         0.1005
     53 H16         3.2462   -2.4474   -1.8022 H         1 <0>         0.1320
     54 H17         2.5486   -4.7454   -1.2600 H         1 <0>         0.1322
     55 H18         4.1088   -6.0970   -4.9966 H         1 <0>         0.1350
     56 H19         4.7960   -3.7961   -5.5397 H         1 <0>         0.1355
     57 H20         0.5791    1.4611   -2.9187 H         1 <0>         0.1401
     58 H21        -3.0084    3.6857   -2.3057 H         1 <0>         0.1409
     59 H22        -3.5107    3.5665   -4.7099 H         1 <0>         0.1435
     60 H23        -2.5469    1.6211   -6.7703 H         1 <0>         0.3925
@<TRIPOS>BOND
     1    1    2 1
     2    1   40 1
     3    1   41 1
     4    1   42 1
     5    2    3 1
     6    3    8 ar
     7    3    4 ar
     8    4    5 ar
     9    4   43 1
    10    5    6 ar
    11    5   13 1
    12    6    7 ar
    13    6   44 1
    14    7    8 ar
    15    7   45 1
    16    8    9 1
    17    9   10 1
    18   10   11 1
    19   10   46 1
    20   10   47 1
    21   11   12 2
    22   11   48 1
    23   12   49 1
    24   12   50 1
    25   13   14 1
    26   13   23 1
    27   13   15 1
    28   15   20 2
    29   15   16 1
    30   16   17 2
    31   16   32 1
    32   17   18 1
    33   18   19 1
    34   18   20 1
    35   20   21 1
    36   21   22 2
    37   21   23 am
    38   23   24 1
    39   24   25 1
    40   24   51 1
    41   24   52 1
    42   25   30 ar
    43   25   26 ar
    44   26   27 ar
    45   26   53 1
    46   27   28 ar
    47   27   54 1
    48   28   29 ar
    49   28   31 1
    50   29   30 ar
    51   29   55 1
    52   30   56 1
    53   32   37 ar
    54   32   33 ar
    55   33   34 ar
    56   33   57 1
    57   34   35 ar
    58   34   39 1
    59   35   36 ar
    60   35   58 1
    61   36   37 ar
    62   36   59 1
    63   37   38 1
    64   38   60 1
@<TRIPOS>MOLECULE
ZINC09462340
   60    64     0     0     0
SMALL
USER_CHARGES

@<TRIPOS>ATOM
      1 C1         -0.0173    1.4248    0.0099 C.3       1 <0>         0.0278
      2 O1          0.0021   -0.0041    0.0020 O.3       1 <0>        -0.3197
      3 C2          0.6053   -0.6066   -1.0548 C.ar      1 <0>         0.1175
      4 C3          1.1723    0.1661   -2.0614 C.ar      1 <0>        -0.2082
      5 C4          1.7848   -0.4398   -3.1354 C.ar      1 <0>        -0.0684
      6 C5          1.8361   -1.8364   -3.2122 C.ar      1 <0>        -0.0818
      7 C6          1.2639   -2.6098   -2.1956 C.ar      1 <0>        -0.0728
      8 C7          0.6584   -1.9938   -1.1233 C.ar      1 <0>        -0.1496
      9 C8          2.4883   -2.4888   -4.3568 C.2       1 <0>        -0.0764
     10 C9          2.5365   -3.8369   -4.4286 C.2       1 <0>        -0.1079
     11 C10         3.1653   -4.4658   -5.5321 C.2       1 <0>         0.4409
     12 O2          3.7175   -3.7157   -6.5140 O.3       1 <0>        -0.6646
     13 N1          3.2123   -5.7804   -5.6020 N.2       1 <0>        -0.6455
     14 C11         3.8147   -6.3829   -6.6592 C.2       1 <0>         0.5037
     15 N2          4.3861   -5.7665   -7.6622 N.2       1 <0>        -0.2949
     16 N3          4.8872   -6.7292   -8.5406 N.pl3     1 <0>        -0.4464
     17 C12         5.6132   -6.6470   -9.8153 C.3       1 <0>         0.2868
     18 H1          4.9992   -6.0840  -10.5182 H         1 <0>         0.0695
     19 C13         5.9846   -7.9663  -10.4666 C.2       1 <0>        -0.3139
     20 C14         5.6214   -9.0956   -9.8283 C.2       1 <0>         0.2137
     21 N4          4.9504   -9.0620   -8.6501 N.2       1 <0>        -0.6557
     22 C15         4.5963   -7.9599   -8.0291 C.2       1 <0>         0.5768
     23 N5          3.9297   -7.7475   -6.8485 N.pl3     1 <0>        -0.6192
     24 C16         5.9636  -10.4086  -10.4291 C.ar      1 <0>        -0.0161
     25 C17         6.6573  -10.4654  -11.6364 C.ar      1 <0>        -0.0959
     26 C18         6.9731  -11.6887  -12.1911 C.ar      1 <0>        -0.1152
     27 C19         6.6018  -12.8585  -11.5504 C.ar      1 <0>        -0.0381
     28 C20         5.9125  -12.8073  -10.3508 C.ar      1 <0>        -0.1181
     29 C21         5.5972  -11.5888   -9.7851 C.ar      1 <0>        -0.0712
     30 Cl1         7.0015  -14.3945  -12.2536 Cl        1 <0>        -0.0829
     31 C22         6.8822   -5.8687   -9.5810 C.ar      1 <0>        -0.1153
     32 C23         7.6114   -6.0697   -8.4236 C.ar      1 <0>        -0.0441
     33 C24         8.7748   -5.3571   -8.2063 C.ar      1 <0>        -0.1489
     34 C25         9.2114   -4.4395   -9.1508 C.ar      1 <0>         0.1197
     35 C26         8.4781   -4.2399  -10.3114 C.ar      1 <0>        -0.2074
     36 C27         7.3182   -4.9588  -10.5264 C.ar      1 <0>        -0.0690
     37 O3         10.3553   -3.7369   -8.9391 O.3       1 <0>        -0.3209
     38 C28        10.7442   -2.8094   -9.9542 C.3       1 <0>         0.0292
     39 H2          1.0053    1.8021    0.0021 H         1 <0>         0.0545
     40 H3         -0.5445    1.7859   -0.8732 H         1 <0>         0.0545
     41 H4         -0.5275    1.7763    0.9067 H         1 <0>         0.0972
     42 H5          1.1321    1.2437   -2.0012 H         1 <0>         0.1263
     43 H6          2.2245    0.1615   -3.9174 H         1 <0>         0.1283
     44 H7          1.3008   -3.6878   -2.2501 H         1 <0>         0.1372
     45 H8          0.2205   -2.5895   -0.3361 H         1 <0>         0.1301
     46 H9          2.9289   -1.8902   -5.1404 H         1 <0>         0.1319
     47 H10         2.0959   -4.4355   -3.6450 H         1 <0>         0.1180
     48 H11         6.5186   -7.9986  -11.4048 H         1 <0>         0.1398
     49 H12         3.5951   -8.4353   -6.2519 H         1 <0>         0.4309
     50 H13         6.9470   -9.5534  -12.1372 H         1 <0>         0.1359
     51 H14         7.5104  -11.7338  -13.1269 H         1 <0>         0.1314
     52 H15         5.6248  -13.7225   -9.8549 H         1 <0>         0.1308
     53 H16         5.0636  -11.5499   -8.8469 H         1 <0>         0.1452
     54 H17         7.2711   -6.7842   -7.6887 H         1 <0>         0.1150
     55 H18         9.3437   -5.5140   -7.3018 H         1 <0>         0.1251
     56 H19         8.8160   -3.5261  -11.0481 H         1 <0>         0.1247
     57 H20         6.7493   -4.8070  -11.4318 H         1 <0>         0.1235
     58 H21        10.8968   -3.3414  -10.8933 H         1 <0>         0.0528
     59 H22         9.9612   -2.0622  -10.0830 H         1 <0>         0.0539
     60 H23        11.6714   -2.3172   -9.6607 H         1 <0>         0.0956
@<TRIPOS>BOND
     1    1    2 1
     2    1   39 1
     3    1   40 1
     4    1   41 1
     5    2    3 1
     6    3    8 ar
     7    3    4 ar
     8    4    5 ar
     9    4   42 1
    10    5    6 ar
    11    5   43 1
    12    6    7 ar
    13    6    9 1
    14    7    8 ar
    15    7   44 1
    16    8   45 1
    17    9   10 2
    18    9   46 1
    19   10   11 1
    20   10   47 1
    21   11   12 1
    22   11   13 2
    23   13   14 1
    24   14   23 1
    25   14   15 2
    26   15   16 1
    27   16   22 1
    28   16   17 1
    29   17   18 1
    30   17   19 1
    31   17   31 1
    32   19   20 2
    33   19   48 1
    34   20   21 1
    35   20   24 1
    36   21   22 2
    37   22   23 1
    38   23   49 1
    39   24   29 ar
    40   24   25 ar
    41   25   26 ar
    42   25   50 1
    43   26   27 ar
    44   26   51 1
    45   27   28 ar
    46   27   30 1
    47   28   29 ar
    48   28   52 1
    49   29   53 1
    50   31   36 ar
    51   31   32 ar
    52   32   33 ar
    53   32   54 1
    54   33   34 ar
    55   33   55 1
    56   34   35 ar
    57   34   37 1
    58   35   36 ar
    59   35   56 1
    60   36   57 1
    61   37   38 1
    62   38   58 1
    63   38   59 1
    64   38   60 1
@<TRIPOS>MOLECULE
ZINC13244295
   42    44     0     0     0
SMALL
USER_CHARGES
3-[[2-[[5-(allylamino)-1,3,4-thiadiazol-2-yl]sulfanyl]acetyl]amino]naphthalene-2-carboxylic acid
@<TRIPOS>ATOM
      1 C1          6.9577   14.4817   -1.4036 C.2       1 <0>        -0.1551
      2 C2          7.3811   13.5714   -0.5620 C.2       1 <0>        -0.1822
      3 C3          6.6734   12.2443   -0.4685 C.3       1 <0>         0.1595
      4 N1          7.6373   11.1610   -0.6772 N.pl3     1 <0>        -0.6708
      5 C4          7.2149    9.8374   -0.6363 C.2       1 <0>         0.3452
      6 N2          6.0070    9.3519   -0.4272 N.2       1 <0>        -0.3699
      7 N3          5.8062    7.9909   -0.4283 N.2       1 <0>        -0.2770
      8 C5          6.8235    7.1778   -0.6386 C.2       1 <0>         0.0344
      9 S1          8.1648    8.3392   -0.8460 S.3       1 <0>        -0.0115
     10 S2          6.8528    5.4169   -0.6928 S.3       1 <0>         0.1256
     11 C6          5.1293    4.9397   -0.3886 C.3       1 <0>        -0.1528
     12 C7          5.0130    3.4374   -0.4088 C.2       1 <0>         0.5313
     13 O1          5.9959    2.7556   -0.6087 O.2       1 <0>        -0.5237
     14 N4          3.8166    2.8513   -0.2046 N.am      1 <0>        -0.6371
     15 C8          3.7269    1.4627   -0.1133 C.ar      1 <0>         0.1862
     16 C9          4.7389    0.7571    0.4713 C.ar      1 <0>        -0.1392
     17 C10         4.6555   -0.6415    0.5669 C.ar      1 <0>        -0.0284
     18 C11         5.6855   -1.3884    1.1652 C.ar      1 <0>        -0.1085
     19 C12         5.5782   -2.7428    1.2448 C.ar      1 <0>        -0.1206
     20 C13         4.4601   -3.4057    0.7411 C.ar      1 <0>        -0.1367
     21 C14         3.4430   -2.7177    0.1551 C.ar      1 <0>        -0.0916
     22 C15         3.5171   -1.3162    0.0541 C.ar      1 <0>        -0.0739
     23 C16         2.4824   -0.5787   -0.5383 C.ar      1 <0>        -0.0476
     24 C17         2.5897    0.8003   -0.6261 C.ar      1 <0>        -0.1341
     25 C18         1.5076    1.5810   -1.2533 C.2       1 <0>         0.4966
     26 O2          1.5527    2.7952   -1.2478 O.co2     1 <0>        -0.6321
     27 H1          7.4650   15.4328   -1.4706 H         1 <0>         0.1061
     28 H2          6.1014   14.2810   -2.0304 H         1 <0>         0.1029
     29 H3          8.2374   13.7721    0.0648 H         1 <0>         0.1181
     30 H4          5.8971   12.1919   -1.2319 H         1 <0>         0.0766
     31 H5          6.2205   12.1427    0.5177 H         1 <0>         0.0808
     32 H6          8.5703   11.3674   -0.8438 H         1 <0>         0.4203
     33 H7          4.4924    5.3639   -1.1648 H         1 <0>         0.1330
     34 H8          4.8148    5.3154    0.5851 H         1 <0>         0.1297
     35 H9          3.0179    3.3954   -0.1213 H         1 <0>         0.4300
     36 H10         5.6037    1.2744    0.8600 H         1 <0>         0.1354
     37 H11         6.5580   -0.8895    1.5604 H         1 <0>         0.1220
     38 H12         6.3718   -3.3129    1.7049 H         1 <0>         0.1163
     39 H13         4.4004   -4.4814    0.8169 H         1 <0>         0.1168
     40 H14         2.5830   -3.2447   -0.2309 H         1 <0>         0.1250
     41 H15         1.6097   -1.0820   -0.9274 H         1 <0>         0.1422
     42 O3          0.4686    0.9479   -1.8326 O.co2     1 <0>        -0.7410
@<TRIPOS>BOND
     1    1    2 2
     2    1   27 1
     3    1   28 1
     4    2    3 1
     5    2   29 1
     6    3    4 1
     7    3   30 1
     8    3   31 1
     9    4    5 1
    10    4   32 1
    11    5    9 1
    12    5    6 2
    13    6    7 1
    14    7    8 2
    15    8    9 1
    16    8   10 1
    17   10   11 1
    18   11   12 1
    19   11   33 1
    20   11   34 1
    21   12   13 2
    22   12   14 am
    23   14   15 1
    24   14   35 1
    25   15   24 ar
    26   15   16 ar
    27   16   17 ar
    28   16   36 1
    29   17   22 ar
    30   17   18 ar
    31   18   19 ar
    32   18   37 1
    33   19   20 ar
    34   19   38 1
    35   20   21 ar
    36   20   39 1
    37   21   22 ar
    38   21   40 1
    39   22   23 ar
    40   23   24 ar
    41   23   41 1
    42   24   25 1
    43   25   26 2
    44   25   42 1
@<TRIPOS>MOLECULE
ZINC26580545
   42    43     0     0     0
SMALL
USER_CHARGES
4-[[(Z)-3-(2,4-dichlorophenyl)-2-(furan-2-carbonylamino)prop-2-enoyl]amino]butanoic acid
@<TRIPOS>ATOM
      1 C1         -1.8133    9.3391    1.0369 C.2       1 <0>        -0.2226
      2 C2         -0.5227    8.9284    1.4054 C.2       1 <0>        -0.1005
      3 C3         -0.2524    7.7957    0.6921 C.2       1 <0>        -0.0946
      4 O1         -1.3230    7.5252   -0.0831 O.3       1 <0>        -0.1656
      5 C4         -2.2686    8.4505    0.1263 C.2       1 <0>         0.0028
      6 C5          0.9865    7.0139    0.7533 C.2       1 <0>         0.5942
      7 O2          1.8536    7.3095    1.5547 O.2       1 <0>        -0.4820
      8 N1          1.1652    5.9682   -0.0779 N.am      1 <0>        -0.6872
      9 C6          2.3879    5.2898   -0.0953 C.2       1 <0>         0.0879
     10 C7          2.4272    3.9594    0.1499 C.2       1 <0>        -0.0612
     11 C8          1.2079    3.2528    0.5695 C.ar      1 <0>        -0.0452
     12 C9          0.1220    3.9693    1.0845 C.ar      1 <0>        -0.0973
     13 C10        -1.0173    3.3004    1.4762 C.ar      1 <0>        -0.1037
     14 C11        -1.0922    1.9218    1.3562 C.ar      1 <0>        -0.0195
     15 C12        -0.0201    1.2042    0.8529 C.ar      1 <0>        -0.1029
     16 C13         1.1277    1.8598    0.4563 C.ar      1 <0>        -0.0092
     17 Cl1         2.4685    0.9595   -0.1805 Cl        1 <0>        -0.0429
     18 Cl2        -2.5350    1.0895    1.8454 Cl        1 <0>        -0.0565
     19 C14         3.6302    6.0216   -0.3796 C.2       1 <0>         0.5538
     20 O3          4.6941    5.4314   -0.3947 O.2       1 <0>        -0.5388
     21 N2          3.5911    7.3465   -0.6237 N.am      1 <0>        -0.7145
     22 C15         4.8295    8.0760   -0.9072 C.3       1 <0>         0.1192
     23 C16         4.5083    9.5526   -1.1465 C.3       1 <0>        -0.1085
     24 C17         5.8017   10.3145   -1.4425 C.3       1 <0>        -0.1549
     25 C18         5.4853   11.7689   -1.6781 C.2       1 <0>         0.4602
     26 O4          4.3425   12.1564   -1.6157 O.co2     1 <0>        -0.6423
     27 O5          6.4729   12.6339   -1.9574 O.co2     1 <0>        -0.7752
     28 H1         -2.3430   10.2027    1.4109 H         1 <0>         0.1595
     29 H2          0.1300    9.4140    2.1158 H         1 <0>         0.1642
     30 H3         -3.2339    8.4838   -0.3569 H         1 <0>         0.2125
     31 H4          0.3493    5.6483   -0.7427 H         1 <0>         0.4439
     32 H5          3.3713    3.4067    0.0353 H         1 <0>         0.1643
     33 H6          0.1768    5.0441    1.1751 H         1 <0>         0.1569
     34 H7         -1.8559    3.8525    1.8742 H         1 <0>         0.1421
     35 H8         -0.0841    0.1296    0.7665 H         1 <0>         0.1473
     36 H9          2.6293    7.8801   -0.6101 H         1 <0>         0.4137
     37 H10         5.5136    7.9837   -0.0508 H         1 <0>         0.0676
     38 H11         5.3062    7.6544   -1.8044 H         1 <0>         0.0669
     39 H12         3.8242    9.6449   -2.0029 H         1 <0>         0.0657
     40 H13         4.0315    9.9742   -0.2493 H         1 <0>         0.0683
     41 H14         6.4858   10.2221   -0.5861 H         1 <0>         0.0673
     42 H15         6.2785    9.8930   -2.3397 H         1 <0>         0.0666
@<TRIPOS>BOND
     1    1    5 2
     2    1    2 1
     3    1   28 1
     4    2    3 2
     5    2   29 1
     6    3    4 1
     7    3    6 1
     8    4    5 1
     9    5   30 1
    10    6    7 2
    11    6    8 am
    12    8    9 1
    13    8   31 1
    14    9   10 2
    15    9   19 1
    16   10   11 1
    17   10   32 1
    18   11   16 ar
    19   11   12 ar
    20   12   13 ar
    21   12   33 1
    22   13   14 ar
    23   13   34 1
    24   14   15 ar
    25   14   18 1
    26   15   16 ar
    27   15   35 1
    28   16   17 1
    29   19   20 2
    30   19   21 am
    31   21   22 1
    32   21   36 1
    33   22   23 1
    34   22   37 1
    35   22   38 1
    36   23   24 1
    37   23   39 1
    38   23   40 1
    39   24   25 1
    40   24   41 1
    41   24   42 1
    42   25   26 2
    43   25   27 1
@<TRIPOS>MOLECULE
ZINC13211689
   53    54     0     0     0
SMALL
USER_CHARGES

@<TRIPOS>ATOM
      1 C1          0.2398    1.5706    0.0955 C.3       1 <0>        -0.1648
      2 C2          0.0234    0.0579    0.0200 C.3       1 <0>         0.1819
      3 H1         -1.0447   -0.1581    0.0447 H         1 <0>         0.0964
      4 C3          0.6133   -0.4705   -1.2621 C.ar      1 <0>        -0.1003
      5 C4          1.9733   -0.7006   -1.3540 C.ar      1 <0>        -0.1093
      6 C5          2.5144   -1.1853   -2.5301 C.ar      1 <0>        -0.1100
      7 C6          1.6955   -1.4404   -3.6141 C.ar      1 <0>        -0.0748
      8 C7          0.3354   -1.2112   -3.5219 C.ar      1 <0>        -0.1146
      9 C8         -0.2063   -0.7305   -2.3445 C.ar      1 <0>        -0.1026
     10 C9          2.2855   -1.9679   -4.8966 C.3       1 <0>        -0.0782
     11 C10         2.2895   -3.4975   -4.8648 C.3       1 <0>        -0.0912
     12 C11         2.7719   -4.0344   -6.2139 C.3       1 <0>        -0.1481
     13 C12         3.2281   -3.9822   -3.7580 C.3       1 <0>        -0.1522
     14 N1          0.6784   -0.5866    1.1610 N.pl3     1 <0>        -0.7168
     15 C13         0.0142   -0.6867    2.3784 C.ar      1 <0>         0.2977
     16 C14        -1.3142   -0.2819    2.4805 C.ar      1 <0>        -0.2048
     17 C15        -1.9743   -0.3801    3.6836 C.ar      1 <0>         0.0099
     18 C16        -1.3099   -0.8870    4.8045 C.ar      1 <0>        -0.1769
     19 C17         0.0235   -1.2925    4.6989 C.ar      1 <0>         0.0430
     20 C18         0.6768   -1.1967    3.4913 C.ar      1 <0>        -0.1339
     21 N2          2.0872   -1.6312    3.3772 N.pl3     1 <0>         0.0475
     22 O1          2.4709   -2.6043    3.9833 O.2       1 <0>        -0.1466
     23 O2          2.8555   -1.0128    2.6778 O.3       1 <0>        -0.1862
     24 C19        -2.0146   -0.9932    6.0962 C.2       1 <0>         0.5508
     25 O3         -1.4356   -1.4342    7.0702 O.2       1 <0>        -0.5533
     26 N3         -3.3003   -0.6014    6.1966 N.am      1 <0>        -0.6911
     27 C20        -4.0001   -0.7068    7.4793 C.3       1 <0>         0.0498
     28 C21        -5.4132   -0.2070    7.3231 C.2       1 <0>         0.4911
     29 O4         -5.7999    0.1996    6.2407 O.co2     1 <0>        -0.6931
     30 O5         -6.1698   -0.2092    8.2792 O.co2     1 <0>        -0.6856
     31 H2          1.3079    1.7866    0.0709 H         1 <0>         0.0652
     32 H3         -0.2475    2.0502   -0.7534 H         1 <0>         0.0723
     33 H4         -0.1869    1.9529    1.0229 H         1 <0>         0.0678
     34 H5          2.6131   -0.5013   -0.5070 H         1 <0>         0.1234
     35 H6          3.5770   -1.3643   -2.6021 H         1 <0>         0.1240
     36 H7         -0.3044   -1.4102   -4.3690 H         1 <0>         0.1235
     37 H8         -1.2694   -0.5550   -2.2712 H         1 <0>         0.1254
     38 H9          1.6875   -1.6235   -5.7403 H         1 <0>         0.0724
     39 H10         3.3074   -1.6040   -5.0030 H         1 <0>         0.0728
     40 H11         1.2801   -3.8596   -4.6696 H         1 <0>         0.0704
     41 H12         3.7813   -3.6723   -6.4091 H         1 <0>         0.0549
     42 H13         2.7748   -5.1241   -6.1913 H         1 <0>         0.0557
     43 H14         2.1032   -3.6891   -7.0024 H         1 <0>         0.0543
     44 H15         2.8845   -3.5998   -2.7969 H         1 <0>         0.0593
     45 H16         3.2310   -5.0720   -3.7354 H         1 <0>         0.0536
     46 H17         4.2376   -3.6202   -3.9532 H         1 <0>         0.0543
     47 H18         1.5755   -0.9435    1.0671 H         1 <0>         0.4109
     48 H19        -1.8267    0.1099    1.6143 H         1 <0>         0.1508
     49 H20        -3.0045   -0.0657    3.7622 H         1 <0>         0.1515
     50 H21         0.5396   -1.6842    5.5630 H         1 <0>         0.1587
     51 H22        -3.7622   -0.2496    5.4196 H         1 <0>         0.4064
     52 H23        -4.0165   -1.7486    7.7997 H         1 <0>         0.0694
     53 H24        -3.4824   -0.1051    8.2262 H         1 <0>         0.0691
@<TRIPOS>BOND
     1    1    2 1
     2    1   31 1
     3    1   32 1
     4    1   33 1
     5    2    3 1
     6    2    4 1
     7    2   14 1
     8    4    9 ar
     9    4    5 ar
    10    5    6 ar
    11    5   34 1
    12    6    7 ar
    13    6   35 1
    14    7    8 ar
    15    7   10 1
    16    8    9 ar
    17    8   36 1
    18    9   37 1
    19   10   11 1
    20   10   38 1
    21   10   39 1
    22   11   12 1
    23   11   13 1
    24   11   40 1
    25   12   41 1
    26   12   42 1
    27   12   43 1
    28   13   44 1
    29   13   45 1
    30   13   46 1
    31   14   15 1
    32   14   47 1
    33   15   20 ar
    34   15   16 ar
    35   16   17 ar
    36   16   48 1
    37   17   18 ar
    38   17   49 1
    39   18   19 ar
    40   18   24 1
    41   19   20 ar
    42   19   50 1
    43   20   21 1
    44   21   22 2
    45   21   23 1
    46   24   25 2
    47   24   26 am
    48   26   27 1
    49   26   51 1
    50   27   28 1
    51   27   52 1
    52   27   53 1
    53   28   29 2
    54   28   30 1
@<TRIPOS>MOLECULE
ZINC58163401
   53    57     0     0     0
SMALL
USER_CHARGES

@<TRIPOS>ATOM
      1 C1         -0.0174    1.3747   -0.0010 C.ar      1 <0>        -0.0743
      2 C2          1.1703    2.0825   -0.0188 C.ar      1 <0>        -0.2013
      3 C3          2.3790    1.4112   -0.0416 C.ar      1 <0>        -0.1142
      4 C4          2.4031    0.0286   -0.0467 C.ar      1 <0>         0.0263
      5 C5          1.2098   -0.6855   -0.0288 C.ar      1 <0>         0.2514
      6 C6         -0.0011   -0.0067   -0.0060 C.ar      1 <0>        -0.2455
      7 N1          1.2295   -2.0838   -0.0343 N.2       1 <0>        -1.0816
      8 S1         -0.1926   -2.9320   -0.0131 S.o2      1 <0>         2.6026
      9 O1         -0.8021   -2.6715    1.2439 O.2       1 <0>        -1.0214
     10 O2         -0.8448   -2.6623   -1.2464 O.2       1 <0>        -1.0252
     11 C7          0.2220   -4.6445   -0.0265 C.ar      1 <0>        -0.6212
     12 C8          0.3694   -5.3096   -1.2310 C.ar      1 <0>         0.0079
     13 C9          0.6948   -6.6541   -1.2505 C.ar      1 <0>        -0.1506
     14 C10         0.8749   -7.3406   -0.0673 C.ar      1 <0>        -0.0494
     15 C11         0.7281   -6.6757    1.1510 C.ar      1 <0>        -0.1673
     16 C12         0.4044   -5.3177    1.1634 C.ar      1 <0>         0.0428
     17 C13         0.9196   -7.4049    2.4224 C.2       1 <0>         0.5665
     18 O3          0.7911   -6.8231    3.4821 O.2       1 <0>        -0.5047
     19 N2          1.2366   -8.7147    2.4069 N.am      1 <0>        -0.6717
     20 C14         1.5127   -9.3820    3.6056 C.ar      1 <0>         0.1765
     21 C15         0.8166   -9.0430    4.7646 C.ar      1 <0>        -0.1237
     22 C16         1.0736   -9.6840    5.9420 C.ar      1 <0>        -0.0449
     23 C17         2.0424  -10.6905    5.9924 C.ar      1 <0>         0.0341
     24 C18         2.7462  -11.0351    4.8260 C.ar      1 <0>         0.0674
     25 C19         2.4721  -10.3802    3.6337 C.ar      1 <0>        -0.1476
     26 N3          3.6174  -12.0425    5.1899 N.pl3     1 <0>        -0.5976
     27 C20         3.4310  -12.2787    6.5176 C.2       1 <0>         0.2889
     28 N4          2.5105  -11.4886    6.9871 N.2       1 <0>        -0.4840
     29 C21         4.1810  -13.3063    7.3253 C.3       1 <0>        -0.0341
     30 C22         5.4087  -13.8831    6.6008 C.3       1 <0>        -0.1389
     31 C23         5.0116  -15.2502    7.1824 C.3       1 <0>        -0.1389
     32 C24         3.5711  -14.7159    7.2477 C.3       1 <0>        -0.1265
     33 F1          3.5839   -0.6275   -0.0694 F         1 <0>        -0.1470
     34 H1         -0.9593    1.9026    0.0213 H         1 <0>         0.1090
     35 H2          1.1539    3.1624   -0.0152 H         1 <0>         0.1114
     36 H3          3.3048    1.9671   -0.0558 H         1 <0>         0.1168
     37 H4         -0.9295   -0.5582    0.0082 H         1 <0>         0.1051
     38 H5          0.2295   -4.7769   -2.1600 H         1 <0>         0.1444
     39 H6          0.8077   -7.1675   -2.1939 H         1 <0>         0.1363
     40 H7          1.1286   -8.3903   -0.0839 H         1 <0>         0.1273
     41 H8          0.2934   -4.7964    2.1027 H         1 <0>         0.1524
     42 H9          1.2734   -9.1949    1.5649 H         1 <0>         0.4098
     43 H10         0.0675   -8.2658    4.7309 H         1 <0>         0.1494
     44 H11         0.5289   -9.4134    6.8344 H         1 <0>         0.1348
     45 H12         3.0070  -10.6448    2.7335 H         1 <0>         0.1263
     46 H13         4.3884  -12.9757    8.3431 H         1 <0>         0.1247
     47 H14         5.3377  -13.8336    5.5143 H         1 <0>         0.0772
     48 H15         6.3577  -13.5057    6.9816 H         1 <0>         0.0801
     49 H16         5.1396  -16.0762    6.4828 H         1 <0>         0.0735
     50 H17         5.4473  -15.4516    8.1610 H         1 <0>         0.0880
     51 H18         3.0365  -15.0106    8.1507 H         1 <0>         0.0796
     52 H19         2.9976  -14.8940    6.3380 H         1 <0>         0.0821
     53 H20         4.2456  -12.4976    4.6076 H         1 <0>         0.4191
@<TRIPOS>BOND
     1    1    6 ar
     2    1    2 ar
     3    1   34 1
     4    2    3 ar
     5    2   35 1
     6    3    4 ar
     7    3   36 1
     8    4    5 ar
     9    4   33 1
    10    5    6 ar
    11    5    7 1
    12    6   37 1
    13    7    8 1
    14    8    9 2
    15    8   10 2
    16    8   11 1
    17   11   16 ar
    18   11   12 ar
    19   12   13 ar
    20   12   38 1
    21   13   14 ar
    22   13   39 1
    23   14   15 ar
    24   14   40 1
    25   15   16 ar
    26   15   17 1
    27   16   41 1
    28   17   18 2
    29   17   19 am
    30   19   20 1
    31   19   42 1
    32   20   25 ar
    33   20   21 ar
    34   21   22 ar
    35   21   43 1
    36   22   23 ar
    37   22   44 1
    38   23   28 1
    39   23   24 ar
    40   24   25 ar
    41   24   26 1
    42   25   45 1
    43   26   27 1
    44   26   53 1
    45   27   28 2
    46   27   29 1
    47   29   32 1
    48   29   30 1
    49   29   46 1
    50   30   31 1
    51   30   47 1
    52   30   48 1
    53   31   32 1
    54   31   49 1
    55   31   50 1
    56   32   51 1
    57   32   52 1
@<TRIPOS>MOLECULE
ZINC66619732
   55    56     0     0     0
SMALL
USER_CHARGES

@<TRIPOS>ATOM
      1 C1          2.3849   -1.8644    1.1365 C.3       1 <0>        -0.1425
      2 C2          1.0440   -1.4736    0.5119 C.3       1 <0>        -0.6035
      3 S1         -0.1476   -2.8212    0.7456 S.o2      1 <0>         2.5263
      4 O1          0.2373   -3.9535   -0.0218 O.2       1 <0>        -1.0278
      5 O2         -0.4708   -2.9553    2.1229 O.2       1 <0>        -1.0292
      6 N1         -1.5431   -2.2834    0.0345 N.2       1 <0>        -1.1015
      7 C3         -2.6846   -3.0922    0.0340 C.ar      1 <0>         0.2780
      8 C4         -2.6492   -4.3438    0.6349 C.ar      1 <0>        -0.2454
      9 C5         -3.7758   -5.1419    0.6343 C.ar      1 <0>        -0.0555
     10 C6         -4.9440   -4.6934    0.0326 C.ar      1 <0>         0.0146
     11 C7         -4.9795   -3.4423   -0.5685 C.ar      1 <0>        -0.0950
     12 C8         -3.8550   -2.6412   -0.5623 C.ar      1 <0>        -0.1749
     13 N2         -6.0874   -5.5039    0.0317 N.am      1 <0>        -0.6590
     14 C9         -5.9648   -6.8420   -0.0724 C.2       1 <0>         0.4951
     15 O3         -4.8640   -7.3514   -0.0808 O.2       1 <0>        -0.5157
     16 C10        -7.1954   -7.7054   -0.1783 C.3       1 <0>        -0.1495
     17 C11        -6.7803   -9.1742   -0.2842 C.3       1 <0>         0.1573
     18 H1         -6.1395   -9.4324    0.5589 H         1 <0>         0.0960
     19 C12        -8.0281  -10.0594   -0.2662 C.3       1 <0>        -0.1611
     20 N3         -6.0493   -9.3861   -1.5360 N.am      1 <0>        -0.7145
     21 C13        -5.1713  -10.4033   -1.6398 C.2       1 <0>         0.5271
     22 O4         -4.9864  -11.1434   -0.6969 O.2       1 <0>        -0.5428
     23 C14        -4.4194  -10.6212   -2.9275 C.3       1 <0>        -0.1082
     24 C15        -5.4140  -10.8741   -4.0623 C.3       1 <0>        -0.1072
     25 C16        -4.6505  -11.0953   -5.3697 C.3       1 <0>        -0.1189
     26 C17        -3.7265  -12.3059   -5.2221 C.3       1 <0>        -0.1203
     27 C18        -2.7320  -12.0530   -4.0873 C.3       1 <0>        -0.1215
     28 C19        -3.4954  -11.8318   -2.7800 C.3       1 <0>        -0.0977
     29 H2          3.1009   -1.0547    0.9961 H         1 <0>         0.0674
     30 H3          2.2493   -2.0487    2.2022 H         1 <0>         0.0642
     31 H4          2.7597   -2.7683    0.6563 H         1 <0>         0.0643
     32 H5          0.6691   -0.5697    0.9921 H         1 <0>         0.1184
     33 H6          1.1796   -1.2893   -0.5538 H         1 <0>         0.1184
     34 H7         -1.7403   -4.6930    1.1023 H         1 <0>         0.1026
     35 H8         -3.7483   -6.1152    1.1015 H         1 <0>         0.1180
     36 H9         -5.8881   -3.0939   -1.0371 H         1 <0>         0.1054
     37 H10        -3.8842   -1.6660   -1.0254 H         1 <0>         0.1140
     38 H11        -6.9670   -5.1018    0.1059 H         1 <0>         0.3979
     39 H12        -7.8146   -7.5659    0.7079 H         1 <0>         0.1060
     40 H13        -7.7621   -7.4231   -1.0656 H         1 <0>         0.0962
     41 H14        -8.5720   -9.9018    0.6652 H         1 <0>         0.0654
     42 H15        -8.6689   -9.8013   -1.1093 H         1 <0>         0.0561
     43 H16        -7.7324  -11.1058   -0.3416 H         1 <0>         0.0629
     44 H17        -6.1972   -8.7942   -2.2901 H         1 <0>         0.3961
     45 H18        -3.8253   -9.7363   -3.1555 H         1 <0>         0.0985
     46 H19        -6.0081  -11.7590   -3.8343 H         1 <0>         0.0658
     47 H20        -6.0722  -10.0117   -4.1674 H         1 <0>         0.0646
     48 H21        -5.3591  -11.2755   -6.1781 H         1 <0>         0.0634
     49 H22        -4.0564  -10.2104   -5.5977 H         1 <0>         0.0655
     50 H23        -4.3207  -13.1908   -4.9941 H         1 <0>         0.0607
     51 H24        -3.1827  -12.4635   -6.1535 H         1 <0>         0.0607
     52 H25        -2.0737  -12.9154   -3.9822 H         1 <0>         0.0638
     53 H26        -2.1379  -11.1680   -4.3153 H         1 <0>         0.0639
     54 H27        -2.7869  -11.6516   -1.9715 H         1 <0>         0.0701
     55 H28        -4.0895  -12.7167   -2.5519 H         1 <0>         0.0670
@<TRIPOS>BOND
     1    1    2 1
     2    1   29 1
     3    1   30 1
     4    1   31 1
     5    2    3 1
     6    2   32 1
     7    2   33 1
     8    3    4 2
     9    3    5 2
    10    3    6 1
    11    6    7 1
    12    7   12 ar
    13    7    8 ar
    14    8    9 ar
    15    8   34 1
    16    9   10 ar
    17    9   35 1
    18   10   11 ar
    19   10   13 1
    20   11   12 ar
    21   11   36 1
    22   12   37 1
    23   13   14 am
    24   13   38 1
    25   14   15 2
    26   14   16 1
    27   16   17 1
    28   16   39 1
    29   16   40 1
    30   17   18 1
    31   17   19 1
    32   17   20 1
    33   19   41 1
    34   19   42 1
    35   19   43 1
    36   20   21 am
    37   20   44 1
    38   21   22 2
    39   21   23 1
    40   23   28 1
    41   23   24 1
    42   23   45 1
    43   24   25 1
    44   24   46 1
    45   24   47 1
    46   25   26 1
    47   25   48 1
    48   25   49 1
    49   26   27 1
    50   26   50 1
    51   26   51 1
    52   27   28 1
    53   27   52 1
    54   27   53 1
    55   28   54 1
    56   28   55 1
@<TRIPOS>MOLECULE
ZINC13195194
   46    48     0     0     0
SMALL
USER_CHARGES
(3R)-3-[(2-oxo-3,4-dihydro-1H-quinolin-6-yl)sulfonylamino]-3-(p-tolyl)propanoic acid
@<TRIPOS>ATOM
      1 C1          6.2709   12.7411    1.7560 C.3       1 <0>        -0.1105
      2 C2          5.3863   11.5256    1.8613 C.ar      1 <0>        -0.0971
      3 C3          5.8739   10.2827    1.5031 C.ar      1 <0>        -0.1195
      4 C4          5.0625    9.1677    1.6001 C.ar      1 <0>        -0.1038
      5 C5          3.7635    9.2957    2.0550 C.ar      1 <0>        -0.0897
      6 C6          3.2741   10.5395    2.4078 C.ar      1 <0>        -0.0997
      7 C7          4.0871   11.6537    2.3157 C.ar      1 <0>        -0.1221
      8 C8          2.8788    8.0803    2.1604 C.3       1 <0>         0.2157
      9 H1          3.2758    7.2860    1.5282 H         1 <0>         0.0931
     10 C9          2.8385    7.6033    3.6136 C.3       1 <0>        -0.1611
     11 C10         2.0707    6.3092    3.6964 C.2       1 <0>         0.4613
     12 O1          1.6950    5.7639    2.6858 O.co2     1 <0>        -0.6227
     13 N1          1.5239    8.4229    1.7211 N.pl3     1 <0>        -1.0904
     14 S1          1.0758    8.1724    0.1467 S.o2      1 <0>         2.6988
     15 O2          2.0826    8.7660   -0.6615 O.2       1 <0>        -0.9637
     16 O3         -0.2934    8.5403    0.0507 O.2       1 <0>        -0.9745
     17 C11         1.1526    6.4367   -0.1470 C.ar      1 <0>        -0.6625
     18 C12         2.2982    5.8778   -0.6837 C.ar      1 <0>         0.0117
     19 C13         2.3622    4.5178   -0.9150 C.ar      1 <0>        -0.1716
     20 C14         1.2738    3.7117   -0.6085 C.ar      1 <0>         0.2090
     21 C15         0.1252    4.2760   -0.0699 C.ar      1 <0>        -0.1352
     22 C16         0.0672    5.6366    0.1592 C.ar      1 <0>         0.0518
     23 C17        -1.0549    3.4008    0.2634 C.3       1 <0>        -0.0777
     24 C18        -1.1447    2.2576   -0.7523 C.3       1 <0>        -0.1376
     25 C19         0.2028    1.6048   -0.9036 C.2       1 <0>         0.5243
     26 O4          0.2717    0.4083   -1.0898 O.2       1 <0>        -0.5332
     27 N2          1.3319    2.3340   -0.8404 N.am      1 <0>        -0.6620
     28 H2          6.1616   13.1854    0.7666 H         1 <0>         0.0664
     29 H3          5.9814   13.4681    2.5147 H         1 <0>         0.0624
     30 H4          7.3097   12.4489    1.9103 H         1 <0>         0.0625
     31 H5          6.8888   10.1827    1.1477 H         1 <0>         0.1183
     32 H6          5.4435    8.1967    1.3203 H         1 <0>         0.1217
     33 H7          2.2577   10.6401    2.7590 H         1 <0>         0.1199
     34 H8          3.7060   12.6248    2.5953 H         1 <0>         0.1176
     35 H9          3.8555    7.4460    3.9727 H         1 <0>         0.0766
     36 H10         2.3480    8.3569    4.2298 H         1 <0>         0.0716
     37 H11         0.8892    8.7964    2.3524 H         1 <0>         0.4148
     38 H12         3.1440    6.5058   -0.9219 H         1 <0>         0.1386
     39 H13         3.2571    4.0820   -1.3342 H         1 <0>         0.1306
     40 H14        -0.8264    6.0759    0.5773 H         1 <0>         0.1368
     41 H15        -0.9314    2.9909    1.2658 H         1 <0>         0.0893
     42 H16        -1.9691    3.9931    0.2233 H         1 <0>         0.0929
     43 H17        -1.4672    2.6501   -1.7166 H         1 <0>         0.1033
     44 H18        -1.8672    1.5198   -0.4033 H         1 <0>         0.1088
     45 H19         2.1921    1.9010   -0.9561 H         1 <0>         0.4111
     46 O5          1.8041    5.7624    4.8929 O.co2     1 <0>        -0.7746
@<TRIPOS>BOND
     1    1    2 1
     2    1   28 1
     3    1   29 1
     4    1   30 1
     5    2    7 ar
     6    2    3 ar
     7    3    4 ar
     8    3   31 1
     9    4    5 ar
    10    4   32 1
    11    5    6 ar
    12    5    8 1
    13    6    7 ar
    14    6   33 1
    15    7   34 1
    16    8    9 1
    17    8   10 1
    18    8   13 1
    19   10   11 1
    20   10   35 1
    21   10   36 1
    22   11   12 2
    23   11   46 1
    24   13   14 1
    25   13   37 1
    26   14   15 2
    27   14   16 2
    28   14   17 1
    29   17   22 ar
    30   17   18 ar
    31   18   19 ar
    32   18   38 1
    33   19   20 ar
    34   19   39 1
    35   20   27 1
    36   20   21 ar
    37   21   22 ar
    38   21   23 1
    39   22   40 1
    40   23   24 1
    41   23   41 1
    42   23   42 1
    43   24   25 1
    44   24   43 1
    45   24   44 1
    46   25   26 2
    47   25   27 am
    48   27   45 1
@<TRIPOS>MOLECULE
ZINC04472014
   43    44     0     0     0
SMALL
USER_CHARGES

@<TRIPOS>ATOM
      1 C1         -0.5939    1.1498   -0.1491 C.3       1 <0>        -0.1396
      2 C2         -0.4840   -0.3757   -0.1910 C.3       1 <0>        -0.0360
      3 C3          0.2070   -0.8723    1.0805 C.3       1 <0>        -0.1389
      4 C4         -1.8843   -0.9855   -0.2818 C.3       1 <0>        -0.1462
      5 C5          0.3227   -0.7884   -1.3951 C.ar      1 <0>        -0.0243
      6 C6         -0.2447   -1.5950   -2.3638 C.ar      1 <0>        -0.1456
      7 C7          0.4953   -1.9736   -3.4683 C.ar      1 <0>        -0.0162
      8 C8          1.8025   -1.5451   -3.6044 C.ar      1 <0>        -0.6135
      9 C9          2.3696   -0.7377   -2.6362 C.ar      1 <0>        -0.0171
     10 C10         1.6282   -0.3556   -1.5338 C.ar      1 <0>        -0.1405
     11 S1          2.7461   -2.0286   -5.0117 S.o2      1 <0>         2.5912
     12 O1          4.1130   -1.9439   -4.6328 O.2       1 <0>        -1.0211
     13 O2          2.1634   -3.2299   -5.4982 O.2       1 <0>        -1.0201
     14 N1          2.5067   -0.8796   -6.1800 N.2       1 <0>        -1.0174
     15 N2          3.1240   -0.9995   -7.3926 N.4       1 <0>        -0.2047
     16 C11         2.7707    0.0824   -8.2045 C.2       1 <0>         0.0226
     17 C12         2.2338   -0.1372   -9.4337 C.2       1 <0>        -0.0584
     18 C13         1.8989   -1.4989   -9.8738 C.2       1 <0>        -0.1348
     19 C14         1.3667   -1.6843  -11.0997 C.2       1 <0>        -0.1308
     20 C15         1.1294   -0.5877  -11.9611 C.2       1 <0>         0.3893
     21 O3          0.6465   -0.7894  -13.0653 O.2       1 <0>        -0.5544
     22 C16         1.4358    0.7283  -11.5758 C.2       1 <0>        -0.4801
     23 C17         1.9695    0.9858  -10.3508 C.2       1 <0>         0.3260
     24 O4          2.2584    2.2559   -9.9813 O.3       1 <0>        -0.6585
     25 H1          0.4037    1.5842   -0.0844 H         1 <0>         0.0590
     26 H2         -1.0862    1.5036   -1.0549 H         1 <0>         0.0594
     27 H3         -1.1774    1.4483    0.7218 H         1 <0>         0.0599
     28 H4         -0.3765   -0.5738    1.9514 H         1 <0>         0.0601
     29 H5          0.2853   -1.9591    1.0507 H         1 <0>         0.0570
     30 H6          1.2046   -0.4379    1.1452 H         1 <0>         0.0587
     31 H7         -2.3766   -0.6317   -1.1876 H         1 <0>         0.0615
     32 H8         -1.8061   -2.0723   -0.3116 H         1 <0>         0.0598
     33 H9         -2.4678   -0.6870    0.5891 H         1 <0>         0.0593
     34 H10        -1.2660   -1.9298   -2.2574 H         1 <0>         0.1334
     35 H11         0.0523   -2.6044   -4.2247 H         1 <0>         0.1379
     36 H12         3.3910   -0.4032   -2.7424 H         1 <0>         0.1378
     37 H13         2.0700    0.2782   -0.7792 H         1 <0>         0.1278
     38 H14         4.1244   -1.0089   -7.2613 H         1 <0>         0.3764
     39 H15         2.9244    1.0926   -7.8549 H         1 <0>         0.1943
     40 H16         2.0774   -2.3422   -9.2230 H         1 <0>         0.1217
     41 H17         1.1189   -2.6830  -11.4277 H         1 <0>         0.1284
     42 H18         1.2424    1.5438  -12.2570 H         1 <0>         0.1117
     43 H19         2.8347   -1.8596   -7.8337 H         1 <0>         0.3650
@<TRIPOS>BOND
     1    1    2 1
     2    1   25 1
     3    1   26 1
     4    1   27 1
     5    2    3 1
     6    2    4 1
     7    2    5 1
     8    3   28 1
     9    3   29 1
    10    3   30 1
    11    4   31 1
    12    4   32 1
    13    4   33 1
    14    5   10 ar
    15    5    6 ar
    16    6    7 ar
    17    6   34 1
    18    7    8 ar
    19    7   35 1
    20    8    9 ar
    21    8   11 1
    22    9   10 ar
    23    9   36 1
    24   10   37 1
    25   11   12 2
    26   11   13 2
    27   11   14 1
    28   14   15 1
    29   15   16 1
    30   15   38 1
    31   15   43 1
    32   16   17 2
    33   16   39 1
    34   17   23 1
    35   17   18 1
    36   18   19 2
    37   18   40 1
    38   19   20 1
    39   19   41 1
    40   20   21 2
    41   20   22 1
    42   22   23 2
    43   22   42 1
    44   23   24 1
@<TRIPOS>MOLECULE
ZINC50208957
   36    36     0     0     0
SMALL
USER_CHARGES

@<TRIPOS>ATOM
      1 C1          1.2245   -0.8496    0.1240 C.3       1 <0>        -0.1583
      2 C2          0.0500    0.1242    0.0085 C.3       1 <0>         0.1260
      3 C3          0.1486    0.8876   -1.3138 C.3       1 <0>        -0.1616
      4 N1         -1.2095   -0.6228    0.0484 N.am      1 <0>        -0.6167
      5 C4         -1.4584   -1.6915   -0.9224 C.3       1 <0>         0.1336
      6 C5         -0.9491   -3.0201   -0.3600 C.3       1 <0>         0.0507
      7 O1         -1.7134   -3.3728    0.7948 O.3       1 <0>        -0.5502
      8 C6         -2.1393   -0.3270    0.9781 C.2       1 <0>         0.7115
      9 O2         -3.2188   -0.8861    0.9576 O.2       1 <0>        -0.5742
     10 N2         -1.8725    0.5885    1.9305 N.am      1 <0>        -0.6614
     11 C7         -2.7801    0.8025    2.9637 C.ar      1 <0>         0.2145
     12 C8         -4.1441    0.8118    2.7037 C.ar      1 <0>        -0.1323
     13 C9         -5.0426    1.0246    3.7291 C.ar      1 <0>        -0.0794
     14 C10        -4.5936    1.2306    5.0252 C.ar      1 <0>        -0.1225
     15 C11        -3.2441    1.2250    5.3034 C.ar      1 <0>        -0.0372
     16 C12        -2.3212    1.0044    4.2755 C.ar      1 <0>        -0.1624
     17 C13        -0.8790    0.9905    4.5658 C.2       1 <0>         0.5303
     18 O3         -0.4859    1.1046    5.7187 O.co2     1 <0>        -0.6782
     19 O4         -0.0727    0.8647    3.6542 O.co2     1 <0>        -0.6854
     20 Br1        -5.8398    1.5213    6.4174 Br        1 <0>        -0.0776
     21 H1          2.1619   -0.2949    0.0821 H         1 <0>         0.0658
     22 H2          1.1609   -1.3847    1.0714 H         1 <0>         0.0655
     23 H3          1.1873   -1.5628   -0.6994 H         1 <0>         0.0546
     24 H4          0.0803    0.8300    0.8386 H         1 <0>         0.0991
     25 H5          0.0416    0.1903   -2.1447 H         1 <0>         0.0571
     26 H6         -0.6437    1.6346   -1.3620 H         1 <0>         0.0578
     27 H7          1.1181    1.3817   -1.3767 H         1 <0>         0.0679
     28 H8         -2.5286   -1.7650   -1.1154 H         1 <0>         0.0897
     29 H9         -0.9361   -1.4665   -1.8523 H         1 <0>         0.0866
     30 H10        -1.0530   -3.7984   -1.1161 H         1 <0>         0.0447
     31 H11         0.1006   -2.9194   -0.0841 H         1 <0>         0.0515
     32 H12        -1.4449   -4.2065    1.2046 H         1 <0>         0.3698
     33 H13        -1.0480    1.0982    1.8958 H         1 <0>         0.4199
     34 H14        -4.5023    0.6526    1.6973 H         1 <0>         0.1378
     35 H15        -6.1023    1.0312    3.5211 H         1 <0>         0.1252
     36 H16        -2.8995    1.3863    6.3141 H         1 <0>         0.1380
@<TRIPOS>BOND
     1    1    2 1
     2    1   21 1
     3    1   22 1
     4    1   23 1
     5    2    3 1
     6    2    4 1
     7    2   24 1
     8    3   25 1
     9    3   26 1
    10    3   27 1
    11    4    5 1
    12    4    8 am
    13    5    6 1
    14    5   28 1
    15    5   29 1
    16    6    7 1
    17    6   30 1
    18    6   31 1
    19    7   32 1
    20    8    9 2
    21    8   10 am
    22   10   11 1
    23   10   33 1
    24   11   16 ar
    25   11   12 ar
    26   12   13 ar
    27   12   34 1
    28   13   14 ar
    29   13   35 1
    30   14   15 ar
    31   14   20 1
    32   15   16 ar
    33   15   36 1
    34   16   17 1
    35   17   18 2
    36   17   19 1
@<TRIPOS>MOLECULE
ZINC62930913
   34    35     0     0     0
SMALL
USER_CHARGES

@<TRIPOS>ATOM
      1 C1         -0.0166    1.3766    0.0096 C.ar      1 <0>        -0.0639
      2 C2          1.1707    2.0859    0.0021 C.ar      1 <0>        -0.2050
      3 C3          2.3799    1.4157   -0.0135 C.ar      1 <0>        -0.0649
      4 C4          2.4059    0.0347   -0.0211 C.ar      1 <0>        -0.1595
      5 C5          1.2154   -0.6807   -0.0131 C.ar      1 <0>         0.2800
      6 C6          0.0021   -0.0041    0.0020 C.ar      1 <0>        -0.2502
      7 N1          1.2380   -2.0772   -0.0208 N.2       1 <0>        -1.0839
      8 S1         -0.1825   -2.9284   -0.0112 S.o2      1 <0>         2.6017
      9 O1         -0.8016   -2.6713    1.2417 O.2       1 <0>        -1.0086
     10 O2         -0.8263   -2.6580   -1.2488 O.2       1 <0>        -1.0103
     11 C7          0.2357   -4.6400   -0.0245 C.ar      1 <0>        -0.7175
     12 C8          0.3936   -5.3046   -1.2285 C.ar      1 <0>         0.2569
     13 C9          0.7222   -6.6493   -1.2390 C.ar      1 <0>        -0.2312
     14 C10         0.8932   -7.3294   -0.0454 C.ar      1 <0>         0.1980
     15 C11         0.7362   -6.6645    1.1587 C.ar      1 <0>        -0.2307
     16 C12         0.4118   -5.3187    1.1691 C.ar      1 <0>         0.2577
     17 F1          0.2631   -4.6688    2.3441 F         1 <0>        -0.0920
     18 F2          1.2129   -8.6419   -0.0555 F         1 <0>        -0.1204
     19 F3          0.2267   -4.6410   -2.3934 F         1 <0>        -0.0934
     20 C13         3.6711    2.1928   -0.0226 C.3       1 <0>        -0.5555
     21 S2          4.2064    2.4961    1.6838 S.o2      1 <0>         2.6029
     22 O3          3.3077    3.3892    2.3273 O.2       1 <0>        -0.9619
     23 O4          4.5809    1.2736    2.3039 O.2       1 <0>        -0.9555
     24 N2          5.6193    3.3480    1.5416 N.pl3     1 <0>        -1.2575
     25 H1         -0.9594    1.9032    0.0259 H         1 <0>         0.1107
     26 H2          1.1532    3.1658    0.0080 H         1 <0>         0.1114
     27 H3          3.3508   -0.4882   -0.0336 H         1 <0>         0.1214
     28 H4         -0.9254   -0.5574    0.0082 H         1 <0>         0.1016
     29 H5          0.8447   -7.1680   -2.1783 H         1 <0>         0.1600
     30 H6          0.8693   -7.1951    2.0899 H         1 <0>         0.1604
     31 H7          4.4360    1.6203   -0.5471 H         1 <0>         0.1379
     32 H8          3.5183    3.1453   -0.5302 H         1 <0>         0.1358
     33 H9          5.9672    3.5671    0.6630 H         1 <0>         0.4097
     34 H10         6.0991    3.6279    2.3368 H         1 <0>         0.4160
@<TRIPOS>BOND
     1    1    6 ar
     2    1    2 ar
     3    1   25 1
     4    2    3 ar
     5    2   26 1
     6    3    4 ar
     7    3   20 1
     8    4    5 ar
     9    4   27 1
    10    5    6 ar
    11    5    7 1
    12    6   28 1
    13    7    8 1
    14    8    9 2
    15    8   10 2
    16    8   11 1
    17   11   16 ar
    18   11   12 ar
    19   12   13 ar
    20   12   19 1
    21   13   14 ar
    22   13   29 1
    23   14   15 ar
    24   14   18 1
    25   15   16 ar
    26   15   30 1
    27   16   17 1
    28   20   21 1
    29   20   31 1
    30   20   32 1
    31   21   22 2
    32   21   23 2
    33   21   24 1
    34   24   33 1
    35   24   34 1
@<TRIPOS>MOLECULE
ZINC66585499
   48    49     0     0     0
SMALL
USER_CHARGES

@<TRIPOS>ATOM
      1 C1          0.1247    1.6268   -0.3368 C.3       1 <0>        -0.1233
      2 C2          0.1312    0.1245   -0.2177 C.ar      1 <0>         0.0001
      3 C3         -0.0585   -0.6563   -1.3358 C.ar      1 <0>        -0.1377
      4 C4         -0.0521   -2.0431   -1.2269 C.ar      1 <0>         0.1997
      5 C5          0.1454   -2.6459    0.0117 C.ar      1 <0>        -0.1689
      6 C6          0.3352   -1.8712    1.1335 C.ar      1 <0>        -0.0613
      7 C7          0.3356   -0.4776    1.0265 C.ar      1 <0>        -0.1795
      8 C8          0.5448    0.3562    2.2263 C.2       1 <0>         0.5676
      9 O1          0.4771    1.5674    2.1442 O.2       1 <0>        -0.5365
     10 N1          0.8110   -0.2249    3.4128 N.am      1 <0>        -0.7288
     11 C9          1.0187    0.6027    4.6036 C.3       1 <0>         0.1368
     12 C10         0.6853   -0.2117    5.8552 C.3       1 <0>        -0.1609
     13 C11         2.4795    1.0537    4.6628 C.3       1 <0>        -0.1636
     14 N2         -0.2445   -2.8309   -2.3612 N.am      1 <0>        -0.6662
     15 C12         0.2503   -2.4329   -3.5500 C.2       1 <0>         0.5341
     16 O2          0.7840   -1.3487   -3.6523 O.2       1 <0>        -0.5210
     17 C13         0.1404   -3.3351   -4.7521 C.3       1 <0>        -0.0863
     18 H1          0.0798   -4.3735   -4.4265 H         1 <0>         0.0981
     19 C14         1.3658   -3.1480   -5.6493 C.3       1 <0>        -0.0683
     20 C15         1.3212   -1.8019   -6.3112 C.2       1 <0>        -0.1571
     21 C16         0.2556   -1.0724   -6.4001 C.2       1 <0>        -0.1329
     22 C17        -1.0818   -1.4664   -5.8450 C.3       1 <0>        -0.0684
     23 C18        -1.1148   -2.9726   -5.5558 C.3       1 <0>        -0.1445
     24 H2         -1.1197   -3.5238   -6.4961 H         1 <0>         0.0787
     25 C19        -2.3451   -3.3160   -4.7560 C.2       1 <0>         0.4973
     26 O3         -3.3675   -2.6679   -4.9018 O.co2     1 <0>        -0.6874
     27 O4         -2.3181   -4.2419   -3.9633 O.co2     1 <0>        -0.6992
     28 H3          1.1501    1.9905   -0.4033 H         1 <0>         0.0702
     29 H4         -0.4229    1.9178   -1.2332 H         1 <0>         0.0575
     30 H5         -0.3578    2.0587    0.5400 H         1 <0>         0.1002
     31 H6         -0.2127   -0.1916   -2.2984 H         1 <0>         0.1464
     32 H7          0.1494   -3.7229    0.0929 H         1 <0>         0.1306
     33 H8          0.4877   -2.3397    2.0945 H         1 <0>         0.1238
     34 H9          0.8650   -1.1912    3.4783 H         1 <0>         0.3977
     35 H10         0.3701    1.4774    4.5558 H         1 <0>         0.0880
     36 H11         1.3339   -1.0864    5.9030 H         1 <0>         0.0600
     37 H12         0.8398    0.4041    6.7412 H         1 <0>         0.0712
     38 H13        -0.3554   -0.5330    5.8130 H         1 <0>         0.0620
     39 H14         2.7171    1.6339    3.7712 H         1 <0>         0.0614
     40 H15         2.6341    1.6695    5.5488 H         1 <0>         0.0632
     41 H16         3.1282    0.1790    4.7106 H         1 <0>         0.0553
     42 H17        -0.7345   -3.6654   -2.2947 H         1 <0>         0.4269
     43 H18         2.2704   -3.2242   -5.0460 H         1 <0>         0.0652
     44 H19         1.3767   -3.9259   -6.4128 H         1 <0>         0.0757
     45 H20         2.2349   -1.4181   -6.7403 H         1 <0>         0.0935
     46 H21         0.3338   -0.1213   -6.9056 H         1 <0>         0.0927
     47 H22        -1.2647   -0.9190   -4.9203 H         1 <0>         0.0677
     48 H23        -1.8597   -1.2206   -6.5678 H         1 <0>         0.0702
@<TRIPOS>BOND
     1    1    2 1
     2    1   28 1
     3    1   29 1
     4    1   30 1
     5    2    7 ar
     6    2    3 ar
     7    3    4 ar
     8    3   31 1
     9    4    5 ar
    10    4   14 1
    11    5    6 ar
    12    5   32 1
    13    6    7 ar
    14    6   33 1
    15    7    8 1
    16    8    9 2
    17    8   10 am
    18   10   11 1
    19   10   34 1
    20   11   12 1
    21   11   13 1
    22   11   35 1
    23   12   36 1
    24   12   37 1
    25   12   38 1
    26   13   39 1
    27   13   40 1
    28   13   41 1
    29   14   15 am
    30   14   42 1
    31   15   16 2
    32   15   17 1
    33   17   18 1
    34   17   23 1
    35   17   19 1
    36   19   20 1
    37   19   43 1
    38   19   44 1
    39   20   21 2
    40   20   45 1
    41   21   22 1
    42   21   46 1
    43   22   23 1
    44   22   47 1
    45   22   48 1
    46   23   24 1
    47   23   25 1
    48   25   26 2
    49   25   27 1
@<TRIPOS>MOLECULE
ZINC12382000
   50    51     0     0     0
SMALL
USER_CHARGES
(2R)-2-[[(E)-2-[(2-bromobenzoyl)amino]-3-(3-nitrophenyl)prop-2-enoyl]amino]-3-methyl-butanoic acid
@<TRIPOS>ATOM
      1 C1         -4.7400    5.8055    0.1941 C.3       1 <0>        -0.1311
      2 C2         -4.7062    4.8221    1.3657 C.3       1 <0>        -0.0879
      3 C3         -6.1226    4.3177    1.6492 C.3       1 <0>        -0.1418
      4 C4         -3.8045    3.6378    1.0117 C.3       1 <0>         0.1056
      5 H1         -4.2073    3.1224    0.1398 H         1 <0>         0.0960
      6 C5         -3.7471    2.6841    2.1771 C.2       1 <0>         0.4635
      7 O1         -2.7696    2.6555    2.8867 O.co2     1 <0>        -0.6319
      8 N1         -2.4555    4.1239    0.7115 N.am      1 <0>        -0.6820
      9 C6         -1.9879    4.0771   -0.5517 C.2       1 <0>         0.5671
     10 O2         -2.7252    3.7476   -1.4614 O.2       1 <0>        -0.5216
     11 C7         -0.5864    4.4244   -0.8302 C.2       1 <0>         0.1135
     12 C8          0.4104    3.6318   -0.3739 C.2       1 <0>        -0.1521
     13 C9          0.0922    2.3553    0.2845 C.ar      1 <0>        -0.0431
     14 C10        -1.0344    1.6240   -0.1065 C.ar      1 <0>        -0.0587
     15 C11        -1.3223    0.4257    0.5112 C.ar      1 <0>        -0.0937
     16 C12        -0.5064   -0.0488    1.5238 C.ar      1 <0>        -0.0406
     17 C13         0.6100    0.6686    1.9163 C.ar      1 <0>        -0.0386
     18 C14         0.9147    1.8662    1.3044 C.ar      1 <0>        -0.0426
     19 N2          1.4794    0.1489    2.9956 N.pl3     1 <0>         0.0362
     20 O3          1.2120   -0.9089    3.5370 O.2       1 <0>        -0.1658
     21 O4          2.4624    0.7790    3.3424 O.3       1 <0>        -0.1717
     22 N3         -0.2842    5.5736   -1.5664 N.am      1 <0>        -0.6529
     23 C15        -1.2774    6.3187   -2.0905 C.2       1 <0>         0.5288
     24 O5         -2.4368    6.0404   -1.8524 O.2       1 <0>        -0.4338
     25 C16        -0.9574    7.4737   -2.9546 C.ar      1 <0>        -0.1073
     26 C17         0.3730    7.7997   -3.2255 C.ar      1 <0>        -0.0819
     27 C18         0.6647    8.8764   -4.0363 C.ar      1 <0>        -0.1141
     28 C19        -0.3572    9.6400   -4.5733 C.ar      1 <0>        -0.0883
     29 C20        -1.6773    9.3266   -4.3058 C.ar      1 <0>        -0.1002
     30 C21        -1.9843    8.2481   -3.4995 C.ar      1 <0>        -0.0428
     31 Br1        -3.7898    7.8215   -3.1336 Br        1 <0>         0.0031
     32 H2         -5.1411    5.3062   -0.6879 H         1 <0>         0.0513
     33 H3         -5.3736    6.6546    0.4506 H         1 <0>         0.0355
     34 H4         -3.7295    6.1564   -0.0150 H         1 <0>         0.0615
     35 H5         -4.3155    5.3245    2.2506 H         1 <0>         0.0582
     36 H6         -6.0986    3.6171    2.4839 H         1 <0>         0.0826
     37 H7         -6.7650    5.1614    1.9015 H         1 <0>         0.0375
     38 H8         -6.5134    3.8154    0.7643 H         1 <0>         0.0482
     39 H9         -1.8988    4.4793    1.4219 H         1 <0>         0.3993
     40 H10         1.4397    3.9361   -0.4930 H         1 <0>         0.1405
     41 H11        -1.6742    1.9950   -0.8936 H         1 <0>         0.1481
     42 H12        -2.1891   -0.1424    0.2072 H         1 <0>         0.1454
     43 H13        -0.7397   -0.9861    2.0069 H         1 <0>         0.1495
     44 H14         1.7861    2.4252    1.6121 H         1 <0>         0.1502
     45 H15         0.6404    5.8347   -1.7000 H         1 <0>         0.4094
     46 H16         1.1719    7.2075   -2.8041 H         1 <0>         0.1334
     47 H17         1.6934    9.1270   -4.2494 H         1 <0>         0.1363
     48 H18        -0.1226   10.4847   -5.2039 H         1 <0>         0.1366
     49 H19        -2.4698    9.9265   -4.7281 H         1 <0>         0.1399
     50 O6         -4.7819    1.8665    2.4268 O.co2     1 <0>        -0.7530
@<TRIPOS>BOND
     1    1    2 1
     2    1   32 1
     3    1   33 1
     4    1   34 1
     5    2    3 1
     6    2    4 1
     7    2   35 1
     8    3   36 1
     9    3   37 1
    10    3   38 1
    11    4    5 1
    12    4    6 1
    13    4    8 1
    14    6    7 2
    15    6   50 1
    16    8    9 am
    17    8   39 1
    18    9   10 2
    19    9   11 1
    20   11   12 2
    21   11   22 1
    22   12   13 1
    23   12   40 1
    24   13   18 ar
    25   13   14 ar
    26   14   15 ar
    27   14   41 1
    28   15   16 ar
    29   15   42 1
    30   16   17 ar
    31   16   43 1
    32   17   18 ar
    33   17   19 1
    34   18   44 1
    35   19   20 2
    36   19   21 1
    37   22   23 am
    38   22   45 1
    39   23   24 2
    40   23   25 1
    41   25   30 ar
    42   25   26 ar
    43   26   27 ar
    44   26   46 1
    45   27   28 ar
    46   27   47 1
    47   28   29 ar
    48   28   48 1
    49   29   30 ar
    50   29   49 1
    51   30   31 1
@<TRIPOS>MOLECULE
ZINC13251207
   55    57     0     0     0
SMALL
USER_CHARGES
(1S,6S)-6-[[4-methoxy-3-[(4-methoxyphenyl)sulfamoyl]phenyl]carbamoyl]cyclohex-3-ene-1-carboxylic acid
@<TRIPOS>ATOM
      1 C1         -0.7021    5.5561   -6.6739 C.3       1 <0>         0.0254
      2 O1         -1.2851    4.2651   -6.4856 O.3       1 <0>        -0.3154
      3 C2         -1.8795    4.0251   -5.2861 C.ar      1 <0>         0.1255
      4 C3         -2.4649    2.7926   -5.0370 C.ar      1 <0>        -0.1345
      5 C4         -3.0688    2.5480   -3.8193 C.ar      1 <0>        -0.0861
      6 C5         -3.0902    3.5366   -2.8443 C.ar      1 <0>         0.1036
      7 C6         -2.5093    4.7723   -3.0968 C.ar      1 <0>        -0.1073
      8 C7         -1.9004    5.0131   -4.3129 C.ar      1 <0>        -0.1846
      9 N1         -3.7018    3.2896   -1.6101 N.pl3     1 <0>        -1.0483
     10 S1         -2.9338    3.7141   -0.2058 S.o2      1 <0>         2.7036
     11 O2         -3.7534    3.2545    0.8602 O.2       1 <0>        -0.9472
     12 O3         -2.5578    5.0774   -0.3445 O.2       1 <0>        -0.9572
     13 C8         -1.4388    2.7848   -0.1282 C.ar      1 <0>        -0.6853
     14 C9         -0.2200    3.4333   -0.1661 C.ar      1 <0>        -0.0228
     15 C10         0.9578    2.7011   -0.1045 C.ar      1 <0>         0.1220
     16 C11         0.9096    1.3168   -0.0048 C.ar      1 <0>        -0.0253
     17 C12        -0.3094    0.6698    0.0331 C.ar      1 <0>        -0.2023
     18 C13        -1.4861    1.4018   -0.0339 C.ar      1 <0>         0.2009
     19 O4         -2.6863    0.7635   -0.0022 O.3       1 <0>        -0.3151
     20 C14        -2.6616   -0.6652   -0.0115 C.3       1 <0>         0.0258
     21 N2          2.1946    3.3583   -0.1434 N.am      1 <0>        -0.6854
     22 C15         3.2515    2.7709   -0.7386 C.2       1 <0>         0.5293
     23 O5          3.1102    1.7174   -1.3229 O.2       1 <0>        -0.4766
     24 C16         4.6088    3.4229   -0.6783 C.3       1 <0>        -0.0816
     25 H1          4.5626    4.4086   -1.1413 H         1 <0>         0.0962
     26 C17         5.0491    3.5602    0.7808 C.3       1 <0>        -0.0793
     27 C18         6.4967    3.9538    0.8481 C.2       1 <0>        -0.1707
     28 C19         7.3253    3.8473   -0.1407 C.2       1 <0>        -0.1381
     29 C20         6.9541    3.3198   -1.4957 C.3       1 <0>        -0.0734
     30 C21         5.6322    2.5528   -1.4188 C.3       1 <0>        -0.1103
     31 H2          5.7784    1.6181   -0.8774 H         1 <0>         0.0736
     32 C22         5.1350    2.2595   -2.8108 C.2       1 <0>         0.4783
     33 O6          4.0711    2.6995   -3.1775 O.co2     1 <0>        -0.6272
     34 H3         -0.2634    5.6149   -7.6700 H         1 <0>         0.1004
     35 H4         -1.4718    6.3210   -6.5703 H         1 <0>         0.0544
     36 H5          0.0734    5.7173   -5.9252 H         1 <0>         0.0604
     37 H6         -2.4482    2.0239   -5.7954 H         1 <0>         0.1354
     38 H7         -3.5246    1.5883   -3.6255 H         1 <0>         0.1338
     39 H8         -2.5296    5.5433   -2.3409 H         1 <0>         0.1568
     40 H9         -1.4443    5.9725   -4.5077 H         1 <0>         0.1350
     41 H10        -4.5756    2.8697   -1.5773 H         1 <0>         0.4246
     42 H11        -0.1832    4.5099   -0.2440 H         1 <0>         0.1503
     43 H12         1.8256    0.7465    0.0428 H         1 <0>         0.1466
     44 H13        -0.3470   -0.4068    0.1103 H         1 <0>         0.1391
     45 H14        -3.6813   -1.0458   -0.0700 H         1 <0>         0.1047
     46 H15        -2.0938   -1.0133   -0.8744 H         1 <0>         0.0620
     47 H16        -2.1909   -1.0265    0.9029 H         1 <0>         0.0604
     48 H17         2.2901    4.2362    0.2581 H         1 <0>         0.4064
     49 H18         4.4411    4.3201    1.2717 H         1 <0>         0.0705
     50 H19         4.9127    2.6064    1.2906 H         1 <0>         0.0721
     51 H20         6.8685    4.3547    1.7794 H         1 <0>         0.1012
     52 H21         8.3474    4.1569    0.0196 H         1 <0>         0.1007
     53 H22         7.7391    2.6523   -1.8510 H         1 <0>         0.0805
     54 H23         6.8487    4.1526   -2.1911 H         1 <0>         0.0710
     55 O7          5.8739    1.5095   -3.6433 O.co2     1 <0>        -0.7765
@<TRIPOS>BOND
     1    1    2 1
     2    1   34 1
     3    1   35 1
     4    1   36 1
     5    2    3 1
     6    3    8 ar
     7    3    4 ar
     8    4    5 ar
     9    4   37 1
    10    5    6 ar
    11    5   38 1
    12    6    7 ar
    13    6    9 1
    14    7    8 ar
    15    7   39 1
    16    8   40 1
    17    9   10 1
    18    9   41 1
    19   10   11 2
    20   10   12 2
    21   10   13 1
    22   13   18 ar
    23   13   14 ar
    24   14   15 ar
    25   14   42 1
    26   15   16 ar
    27   15   21 1
    28   16   17 ar
    29   16   43 1
    30   17   18 ar
    31   17   44 1
    32   18   19 1
    33   19   20 1
    34   20   45 1
    35   20   46 1
    36   20   47 1
    37   21   22 am
    38   21   48 1
    39   22   23 2
    40   22   24 1
    41   24   25 1
    42   24   30 1
    43   24   26 1
    44   26   27 1
    45   26   49 1
    46   26   50 1
    47   27   28 2
    48   27   51 1
    49   28   29 1
    50   28   52 1
    51   29   30 1
    52   29   53 1
    53   29   54 1
    54   30   31 1
    55   30   32 1
    56   32   33 2
    57   32   55 1
@<TRIPOS>MOLECULE
ZINC28866464
   49    50     0     0     0
SMALL
USER_CHARGES
N-[(1R)-2,2-dichloro-1-[[N-(6-chloro-3-pyridyl)-N'-cyano-carbamimidoyl]amino]propyl]-3,5-dimethoxy-benzamide
@<TRIPOS>ATOM
      1 C1         -3.9401    7.7005   -0.5258 C.3       1 <0>        -0.1641
      2 C2         -4.8402    6.4808   -0.7337 C.3       1 <0>         0.0813
      3 C3         -4.1550    5.2380   -0.1622 C.3       1 <0>         0.3651
      4 H1         -4.7706    4.3356   -0.2915 H         1 <0>         0.1639
      5 N1         -2.8782    5.0252   -0.8482 N.am      1 <0>        -0.7372
      6 C4         -2.5336    3.7900   -1.2630 C.2       1 <0>         0.5650
      7 O1         -3.2823    2.8525   -1.0678 O.2       1 <0>        -0.4894
      8 C5         -1.2448    3.5753   -1.9554 C.ar      1 <0>        -0.0450
      9 C6         -0.3867    4.6509   -2.1855 C.ar      1 <0>        -0.1548
     10 C7          0.8175    4.4462   -2.8387 C.ar      1 <0>         0.1589
     11 C8          1.1700    3.1740   -3.2652 C.ar      1 <0>        -0.2787
     12 C9          0.3193    2.1017   -3.0389 C.ar      1 <0>         0.1592
     13 C10        -0.8863    2.2975   -2.3856 C.ar      1 <0>        -0.1273
     14 O2          0.6696    0.8573   -3.4583 O.3       1 <0>        -0.3091
     15 C11         1.9267    0.7275   -4.1252 C.3       1 <0>         0.0232
     16 O3          1.6548    5.4931   -3.0622 O.3       1 <0>        -0.3104
     17 C12         2.8800    5.2104   -3.7413 C.3       1 <0>         0.0233
     18 N2         -3.9140    5.4284    1.2702 N.pl3     1 <0>        -0.7502
     19 C13        -4.2009    4.4237    2.1509 C.2       1 <0>         0.6441
     20 N3         -4.7584    3.3060    1.7194 N.2       1 <0>        -0.5988
     21 C14        -5.1408    2.3540    2.6045 C.1       1 <0>         0.4313
     22 N4         -5.4613    1.5558    3.3466 N.1       1 <0>        -0.5521
     23 N5         -3.9111    4.5749    3.4788 N.2       1 <0>        -0.6921
     24 C15        -3.2058    5.7015    3.9173 C.ar      1 <0>         0.1717
     25 C16        -3.4278    6.2228    5.1899 C.ar      1 <0>        -0.1263
     26 C17        -2.7063    7.3386    5.5790 C.ar      1 <0>        -0.1082
     27 C18        -1.7952    7.8953    4.6980 C.ar      1 <0>         0.0827
     28 N6         -1.6083    7.3766    3.4993 N.ar      1 <0>        -0.4435
     29 C19        -2.2711    6.3119    3.0924 C.ar      1 <0>        -0.0342
     30 Cl1        -0.8858    9.2944    5.1770 Cl        1 <0>        -0.0721
     31 Cl2        -5.1368    6.2464   -2.4967 Cl        1 <0>        -0.1283
     32 Cl3        -6.4116    6.7427    0.1105 Cl        1 <0>        -0.1126
     33 H2         -4.4328    8.5941   -0.9367 H         1 <0>         0.0895
     34 H3         -2.9814    7.5408   -1.0410 H         1 <0>         0.0871
     35 H4         -3.7591    7.8435    0.5497 H         1 <0>         0.0883
     36 H5         -2.2006    5.8736   -1.0248 H         1 <0>         0.4084
     37 H6         -0.6606    5.6417   -1.8544 H         1 <0>         0.1357
     38 H7          2.1094    3.0179   -3.7746 H         1 <0>         0.1364
     39 H8         -1.5476    1.4621   -2.2091 H         1 <0>         0.1482
     40 H9          2.0844   -0.3235   -4.4089 H         1 <0>         0.1036
     41 H10         2.7341    1.0507   -3.4517 H         1 <0>         0.0559
     42 H11         1.9292    1.3554   -5.0284 H         1 <0>         0.0554
     43 H12         3.4584    6.1390   -3.8559 H         1 <0>         0.1036
     44 H13         2.6605    4.7903   -4.7339 H         1 <0>         0.0553
     45 H14         3.4641    4.4843   -3.1568 H         1 <0>         0.0559
     46 H15        -3.5021    6.3802    1.6369 H         1 <0>         0.4206
     47 H16        -4.1450    5.7675    5.8569 H         1 <0>         0.1321
     48 H17        -2.8528    7.7698    6.5583 H         1 <0>         0.1284
     49 H18        -2.0880    5.9133    2.1055 H         1 <0>         0.1603
@<TRIPOS>BOND
     1    1    2 1
     2    1   33 1
     3    1   34 1
     4    1   35 1
     5    2    3 1
     6    2   31 1
     7    2   32 1
     8    3    4 1
     9    3    5 1
    10    3   18 1
    11    5    6 am
    12    5   36 1
    13    6    7 2
    14    6    8 1
    15    8   13 ar
    16    8    9 ar
    17    9   10 ar
    18    9   37 1
    19   10   11 ar
    20   10   16 1
    21   11   12 ar
    22   11   38 1
    23   12   13 ar
    24   12   14 1
    25   13   39 1
    26   14   15 1
    27   15   40 1
    28   15   41 1
    29   15   42 1
    30   16   17 1
    31   17   43 1
    32   17   44 1
    33   17   45 1
    34   18   19 1
    35   18   46 1
    36   19   20 2
    37   19   23 1
    38   20   21 1
    39   21   22 3
    40   23   24 1
    41   24   29 ar
    42   24   25 ar
    43   25   26 ar
    44   25   47 1
    45   26   27 ar
    46   26   48 1
    47   27   28 ar
    48   27   30 1
    49   28   29 ar
    50   29   49 1
@<TRIPOS>MOLECULE
ZINC39015683
   59    62     0     0     0
SMALL
USER_CHARGES

@<TRIPOS>ATOM
      1 C1         -1.8886    1.2387    0.1473 C.3       1 <0>        -0.1497
      2 C2         -1.3884   -0.2069    0.1195 C.3       1 <0>         0.0515
      3 O1         -2.4847   -1.0948    0.3473 O.3       1 <0>        -0.3113
      4 C3         -2.2095   -2.4263    0.3541 C.ar      1 <0>         0.1327
      5 C4         -0.9117   -2.8683    0.1516 C.ar      1 <0>        -0.2013
      6 C5         -0.6337   -4.2223    0.1592 C.ar      1 <0>         0.0043
      7 C6         -1.6480   -5.1385    0.3681 C.ar      1 <0>        -0.1258
      8 C7         -2.9446   -4.7046    0.5703 C.ar      1 <0>        -0.0792
      9 C8         -3.2295   -3.3482    0.5700 C.ar      1 <0>         0.0357
     10 O2         -4.5036   -2.9194    0.7747 O.3       1 <0>        -0.2792
     11 C9         -5.2610   -2.6487   -0.3058 C.2       1 <0>         0.5012
     12 O3         -4.8338   -2.8776   -1.4198 O.2       1 <0>        -0.4833
     13 C10        -6.6110   -2.0736   -0.1361 C.ar      1 <0>        -0.1117
     14 C11        -7.1028   -1.8039    1.1428 C.ar      1 <0>        -0.0673
     15 C12        -8.3640   -1.2664    1.2939 C.ar      1 <0>        -0.1292
     16 C13        -9.1417   -0.9949    0.1819 C.ar      1 <0>        -0.0885
     17 C14        -8.6607   -1.2596   -1.0879 C.ar      1 <0>        -0.0991
     18 C15        -7.3987   -1.7918   -1.2539 C.ar      1 <0>        -0.0565
     19 C16        -9.5150   -0.9610   -2.2929 C.3       1 <0>        -0.1144
     20 C17         0.7782   -4.7011   -0.0611 C.3       1 <0>         0.1272
     21 H1          1.4174   -3.8506   -0.2980 H         1 <0>         0.0679
     22 C18         0.8032   -5.6821   -1.2047 C.2       1 <0>        -0.4222
     23 C19         0.0300   -5.6113   -2.3676 C.2       1 <0>         0.1116
     24 N1          0.3298   -6.6366   -3.1229 N.2       1 <0>        -0.3771
     25 N2          1.3056   -7.3973   -2.4664 N.pl3     1 <0>        -0.5467
     26 C20         1.5858   -6.7903   -1.2920 C.2       1 <0>         0.4405
     27 O4          2.4842   -7.2122   -0.3658 O.3       1 <0>        -0.7079
     28 C21        -0.9765   -4.5384   -2.6944 C.3       1 <0>        -0.0771
     29 C22         1.2812   -5.3746    1.1896 C.2       1 <0>        -0.0093
     30 C23         2.4220   -5.1471    1.8443 C.2       1 <0>        -0.0700
     31 N3          2.5230   -5.9506    2.9262 N.2       1 <0>        -0.1256
     32 N4          1.5672   -6.7131    3.0888 N.2       1 <0>        -0.2187
     33 C24         0.6050   -6.4650    2.0017 C.3       1 <0>         0.1687
     34 H2         -0.3474   -6.1149    2.3997 H         1 <0>         0.1064
     35 O5          0.4225   -7.6428    1.2132 O.3       1 <0>        -0.4779
     36 C25         3.4569   -4.1320    1.4327 C.3       1 <0>        -0.0691
     37 H3         -1.0524    1.9160   -0.0265 H         1 <0>         0.0780
     38 H4         -2.6378    1.3790   -0.6319 H         1 <0>         0.0642
     39 H5         -2.3320    1.4511    1.1202 H         1 <0>         0.0647
     40 H6         -0.9450   -0.4193   -0.8534 H         1 <0>         0.0649
     41 H7         -0.6392   -0.3472    0.8986 H         1 <0>         0.0643
     42 H8         -0.1177   -2.1549   -0.0125 H         1 <0>         0.1351
     43 H9         -1.4266   -6.1955    0.3730 H         1 <0>         0.1404
     44 H10        -3.7351   -5.4224    0.7324 H         1 <0>         0.1331
     45 H11        -6.4972   -2.0160    2.0115 H         1 <0>         0.1391
     46 H12        -8.7456   -1.0574    2.2824 H         1 <0>         0.1316
     47 H13       -10.1289   -0.5747    0.3059 H         1 <0>         0.1278
     48 H14        -7.0225   -1.9938   -2.2459 H         1 <0>         0.1378
     49 H15        -9.3240    0.0577   -2.6304 H         1 <0>         0.0726
     50 H16        -9.2721   -1.6603   -3.0929 H         1 <0>         0.0697
     51 H17       -10.5670   -1.0643   -2.0270 H         1 <0>         0.0685
     52 H18        -0.4818   -3.7263   -3.2273 H         1 <0>         0.0552
     53 H19        -1.7639   -4.9575   -3.3209 H         1 <0>         0.0542
     54 H20        -1.4118   -4.1552   -1.7715 H         1 <0>         0.0732
     55 H21        -0.0057   -8.3699    1.6856 H         1 <0>         0.3644
     56 H22         3.2359   -3.1754    1.9061 H         1 <0>         0.0617
     57 H23         4.4441   -4.4725    1.7451 H         1 <0>         0.0695
     58 H24         3.4393   -4.0139    0.3493 H         1 <0>         0.0724
     59 H25         1.7112   -8.2138   -2.7978 H         1 <0>         0.4075
@<TRIPOS>BOND
     1    1    2 1
     2    1   37 1
     3    1   38 1
     4    1   39 1
     5    2    3 1
     6    2   40 1
     7    2   41 1
     8    3    4 1
     9    4    9 ar
    10    4    5 ar
    11    5    6 ar
    12    5   42 1
    13    6    7 ar
    14    6   20 1
    15    7    8 ar
    16    7   43 1
    17    8    9 ar
    18    8   44 1
    19    9   10 1
    20   10   11 1
    21   11   12 2
    22   11   13 1
    23   13   18 ar
    24   13   14 ar
    25   14   15 ar
    26   14   45 1
    27   15   16 ar
    28   15   46 1
    29   16   17 ar
    30   16   47 1
    31   17   18 ar
    32   17   19 1
    33   18   48 1
    34   19   49 1
    35   19   50 1
    36   19   51 1
    37   20   21 1
    38   20   22 1
    39   20   29 1
    40   22   26 2
    41   22   23 1
    42   23   28 1
    43   23   24 2
    44   24   25 1
    45   25   26 1
    46   25   59 1
    47   26   27 1
    48   28   52 1
    49   28   53 1
    50   28   54 1
    51   29   33 1
    52   29   30 2
    53   30   31 1
    54   30   36 1
    55   31   32 2
    56   32   33 1
    57   33   34 1
    58   33   35 1
    59   35   55 1
    60   36   56 1
    61   36   57 1
    62   36   58 1
@<TRIPOS>MOLECULE
ZINC33260000
   65    67     0     0     0
SMALL
USER_CHARGES

@<TRIPOS>ATOM
      1 C1          2.1592    2.6809   -1.0478 C.3       1 <0>        -0.1503
      2 C2          1.8755    1.1840   -0.9082 C.3       1 <0>        -0.1358
      3 C3          2.4815    0.4369   -2.0980 C.3       1 <0>         0.1190
      4 N1          2.2098   -0.9965   -1.9644 N.am      1 <0>        -0.7376
      5 C4          2.6517   -1.8565   -2.9033 C.2       1 <0>         0.5130
      6 O1          3.2743   -1.4438   -3.8588 O.2       1 <0>        -0.5172
      7 C5          2.3723   -3.3310   -2.7658 C.3       1 <0>         0.0360
      8 N2          2.9541   -4.0482   -3.9082 N.3       1 <0>        -0.5192
      9 C6          2.2849   -3.6737   -5.1611 C.3       1 <0>         0.0372
     10 C7          3.0333   -4.2995   -6.3428 C.3       1 <0>         0.1334
     11 N3          3.1497   -5.7469   -6.1085 N.pl3     1 <0>        -0.6369
     12 C8          3.6854   -6.2017   -4.8164 C.3       1 <0>         0.1284
     13 C9          2.9113   -5.5010   -3.6948 C.3       1 <0>         0.0420
     14 C10         2.7606   -6.6673   -7.0892 C.ar      1 <0>         0.1838
     15 C11         2.1482   -6.2197   -8.2567 C.ar      1 <0>        -0.1712
     16 C12         1.7607   -7.1170   -9.2294 C.ar      1 <0>        -0.1463
     17 C13         1.9787   -8.4775   -9.0509 C.ar      1 <0>         0.1316
     18 C14         2.5959   -8.9366   -7.8758 C.ar      1 <0>        -0.1075
     19 C15         2.9908   -8.0170   -6.8975 C.ar      1 <0>        -0.1374
     20 C16         2.8310  -10.3744   -7.6771 C.2       1 <0>         0.5268
     21 O2          3.3690  -10.7705   -6.6520 O.co2     1 <0>        -0.6822
     22 O3          2.4887  -11.1749   -8.5370 O.co2     1 <0>        -0.6782
     23 N4          1.5869   -9.3811  -10.0315 N.pl3     1 <0>        -1.0207
     24 S1          1.6996   -8.9675  -11.6311 S.o2      1 <0>         2.6852
     25 O4          1.3692  -10.1318  -12.3758 O.2       1 <0>        -0.9553
     26 O5          0.9985   -7.7410  -11.7839 O.2       1 <0>        -0.9698
     27 C17         3.3956   -8.6227  -11.9618 C.ar      1 <0>        -0.6708
     28 C18         3.7870   -7.3408  -12.3008 C.ar      1 <0>        -0.0166
     29 C19         5.1173   -7.0703  -12.5602 C.ar      1 <0>        -0.1538
     30 C20         6.0568   -8.0815  -12.4801 C.ar      1 <0>        -0.0640
     31 C21         5.6656   -9.3628  -12.1403 C.ar      1 <0>        -0.1445
     32 C22         4.3355   -9.6325  -11.8766 C.ar      1 <0>         0.0417
     33 C23         3.9098  -11.0284  -11.5009 C.3       1 <0>        -0.1215
     34 C24         3.5631  -11.8141  -12.7672 C.3       1 <0>        -0.1451
     35 H1          3.2364    2.8461   -1.0701 H         1 <0>         0.0581
     36 H2          1.7158    3.0501   -1.9726 H         1 <0>         0.0580
     37 H3          1.7275    3.2131   -0.2002 H         1 <0>         0.0595
     38 H4          2.3188    0.8148    0.0166 H         1 <0>         0.0684
     39 H5          0.7983    1.0188   -0.8860 H         1 <0>         0.0681
     40 H6          2.0381    0.8061   -3.0229 H         1 <0>         0.0663
     41 H7          3.5587    0.6020   -2.1203 H         1 <0>         0.0670
     42 H8          1.7119   -1.3265   -1.2002 H         1 <0>         0.3993
     43 H9          2.8157   -3.7001   -1.8410 H         1 <0>         0.1042
     44 H10         1.2951   -3.4961   -2.7435 H         1 <0>         0.0625
     45 H11         1.2575   -4.0374   -5.1475 H         1 <0>         0.0325
     46 H12         2.2857   -2.5886   -5.2636 H         1 <0>         0.0971
     47 H13         2.4780   -4.1212   -7.2637 H         1 <0>         0.0841
     48 H14         4.0277   -3.8600   -6.4206 H         1 <0>         0.0650
     49 H15         3.5612   -7.2810   -4.7281 H         1 <0>         0.0926
     50 H16         4.7425   -5.9451   -4.7475 H         1 <0>         0.0648
     51 H17         3.3664   -5.7411   -2.7338 H         1 <0>         0.0837
     52 H18         1.8752   -5.8393   -3.7016 H         1 <0>         0.0407
     53 H19         1.9753   -5.1635   -8.4012 H         1 <0>         0.1196
     54 H20         1.2863   -6.7613  -10.1321 H         1 <0>         0.1516
     55 H21         3.4700   -8.3613   -5.9929 H         1 <0>         0.1303
     56 H22         1.2474  -10.2540   -9.7790 H         1 <0>         0.4388
     57 H23         3.0532   -6.5509  -12.3634 H         1 <0>         0.1395
     58 H24         5.4230   -6.0690  -12.8258 H         1 <0>         0.1275
     59 H25         7.0962   -7.8703  -12.6835 H         1 <0>         0.1256
     60 H26         6.3994  -10.1528  -12.0780 H         1 <0>         0.1285
     61 H27         4.7238  -11.5274  -10.9751 H         1 <0>         0.0835
     62 H28         3.0347  -10.9794  -10.8528 H         1 <0>         0.1016
     63 H29         4.4641  -11.9580  -13.3635 H         1 <0>         0.0437
     64 H30         3.1512  -12.7848  -12.4912 H         1 <0>         0.0623
     65 H31         2.8272  -11.2592  -13.3490 H         1 <0>         0.0798
@<TRIPOS>BOND
     1    1    2 1
     2    1   35 1
     3    1   36 1
     4    1   37 1
     5    2    3 1
     6    2   38 1
     7    2   39 1
     8    3    4 1
     9    3   40 1
    10    3   41 1
    11    4    5 am
    12    4   42 1
    13    5    6 2
    14    5    7 1
    15    7    8 1
    16    7   43 1
    17    7   44 1
    18    8   13 1
    19    8    9 1
    20    9   10 1
    21    9   45 1
    22    9   46 1
    23   10   11 1
    24   10   47 1
    25   10   48 1
    26   11   12 1
    27   11   14 1
    28   12   13 1
    29   12   49 1
    30   12   50 1
    31   13   51 1
    32   13   52 1
    33   14   19 ar
    34   14   15 ar
    35   15   16 ar
    36   15   53 1
    37   16   17 ar
    38   16   54 1
    39   17   18 ar
    40   17   23 1
    41   18   19 ar
    42   18   20 1
    43   19   55 1
    44   20   21 2
    45   20   22 1
    46   23   24 1
    47   23   56 1
    48   24   25 2
    49   24   26 2
    50   24   27 1
    51   27   32 ar
    52   27   28 ar
    53   28   29 ar
    54   28   57 1
    55   29   30 ar
    56   29   58 1
    57   30   31 ar
    58   30   59 1
    59   31   32 ar
    60   31   60 1
    61   32   33 1
    62   33   34 1
    63   33   61 1
    64   33   62 1
    65   34   63 1
    66   34   64 1
    67   34   65 1
@<TRIPOS>MOLECULE
ZINC09126054
   44    46     0     0     0
SMALL
USER_CHARGES
3-[[3-(2-furylmethylsulfamoyl)phenyl]sulfamoyl]benzoic acid
@<TRIPOS>ATOM
      1 C1         -0.9677    6.2531   -4.5343 C.ar      1 <0>        -0.1556
      2 C2         -0.4260    5.1898   -5.2266 C.ar      1 <0>        -0.0182
      3 C3          0.5415    4.3864   -4.6203 C.ar      1 <0>        -0.1317
      4 C4          0.9584    4.6690   -3.3178 C.ar      1 <0>         0.0148
      5 C5          0.4045    5.7318   -2.6352 C.ar      1 <0>        -0.6946
      6 C6         -0.5542    6.5241   -3.2422 C.ar      1 <0>        -0.0269
      7 S1          0.9238    6.0859   -0.9892 S.o2      1 <0>         2.6914
      8 O1          0.6554    7.4634   -0.7661 O.2       1 <0>        -0.9544
      9 O2          2.2236    5.5300   -0.8449 O.2       1 <0>        -0.9487
     10 N1         -0.0690    5.2391    0.0304 N.pl3     1 <0>        -1.0573
     11 C7         -0.0501    3.8425    0.0232 C.ar      1 <0>         0.1277
     12 C8          1.1615    3.1627    0.0080 C.ar      1 <0>        -0.0910
     13 C9          1.1766    1.7820    0.0004 C.ar      1 <0>        -0.1072
     14 C10        -0.0126    1.0758    0.0080 C.ar      1 <0>        -0.0231
     15 C11        -1.2201    1.7492    0.0174 C.ar      1 <0>        -0.6628
     16 C12        -1.2424    3.1302    0.0307 C.ar      1 <0>        -0.0370
     17 S2         -2.7322    0.8446    0.0190 S.o2      1 <0>         2.6952
     18 O3         -3.7225    1.7079   -0.5223 O.2       1 <0>        -0.9492
     19 O4         -2.4439   -0.4294   -0.5405 O.2       1 <0>        -0.9469
     20 N2         -3.1451    0.5841    1.6014 N.pl3     1 <0>        -1.1163
     21 C13        -3.4778    1.7176    2.4678 C.3       1 <0>         0.1978
     22 C14        -4.1606    1.2144    3.7134 C.2       1 <0>        -0.0282
     23 C15        -3.5482    0.8589    4.8571 C.2       1 <0>        -0.1855
     24 C16        -4.5617    0.4514    5.7548 C.2       1 <0>        -0.2184
     25 C17        -5.7327    0.5823    5.1060 C.2       1 <0>        -0.0295
     26 O5         -5.4841    1.0503    3.8719 O.3       1 <0>        -0.1695
     27 C18         1.1263    3.2463   -5.3556 C.2       1 <0>         0.4897
     28 O6          1.9679    2.5491   -4.8255 O.co2     1 <0>        -0.6230
     29 H1         -1.7159    6.8756   -5.0023 H         1 <0>         0.1300
     30 H2         -0.7494    4.9795   -6.2354 H         1 <0>         0.1412
     31 H3          1.7096    4.0542   -2.8445 H         1 <0>         0.1431
     32 H4         -0.9812    7.3580   -2.7049 H         1 <0>         0.1337
     33 H5         -0.6637    5.7130    0.6326 H         1 <0>         0.4264
     34 H6          2.0904    3.7136    0.0024 H         1 <0>         0.1678
     35 H7          2.1181    1.2530   -0.0118 H         1 <0>         0.1443
     36 H8          0.0021   -0.0041    0.0020 H         1 <0>         0.1449
     37 H9         -2.1859    3.6556    0.0425 H         1 <0>         0.1462
     38 H10        -3.1667   -0.3190    1.9547 H         1 <0>         0.4223
     39 H11        -2.5645    2.2456    2.7421 H         1 <0>         0.1000
     40 H12        -4.1448    2.3970    1.9371 H         1 <0>         0.0999
     41 H13        -2.4862    0.8801    5.0521 H         1 <0>         0.1523
     42 H14        -4.4223    0.1018    6.7671 H         1 <0>         0.1502
     43 H15        -6.7078    0.3547    5.5106 H         1 <0>         0.2045
     44 O7          0.7262    2.9800   -6.6141 O.co2     1 <0>        -0.7482
@<TRIPOS>BOND
     1    1    6 ar
     2    1    2 ar
     3    1   29 1
     4    2    3 ar
     5    2   30 1
     6    3    4 ar
     7    3   27 1
     8    4    5 ar
     9    4   31 1
    10    5    6 ar
    11    5    7 1
    12    6   32 1
    13    7    8 2
    14    7    9 2
    15    7   10 1
    16   10   11 1
    17   10   33 1
    18   11   16 ar
    19   11   12 ar
    20   12   13 ar
    21   12   34 1
    22   13   14 ar
    23   13   35 1
    24   14   15 ar
    25   14   36 1
    26   15   16 ar
    27   15   17 1
    28   16   37 1
    29   17   18 2
    30   17   19 2
    31   17   20 1
    32   20   21 1
    33   20   38 1
    34   21   22 1
    35   21   39 1
    36   21   40 1
    37   22   26 1
    38   22   23 2
    39   23   24 1
    40   23   41 1
    41   24   25 2
    42   24   42 1
    43   25   26 1
    44   25   43 1
    45   27   28 2
    46   27   44 1
@<TRIPOS>MOLECULE
ZINC13068727
   49    50     0     0     0
SMALL
USER_CHARGES
4-[[2-[(4-acetamidophenyl)amino]-2-oxo-ethyl]-ethyl-sulfamoyl]benzoic acid
@<TRIPOS>ATOM
      1 C1          2.0245   11.6943   -2.0208 C.3       1 <0>        -0.1728
      2 C2          2.3491   10.3414   -1.3841 C.3       1 <0>         0.1217
      3 N1          1.7388   10.2687   -0.0542 N.pl3     1 <0>        -0.9788
      4 C3          0.3443    9.8435    0.0895 C.3       1 <0>         0.1004
      5 C4          0.2802    8.3386    0.1363 C.2       1 <0>         0.4781
      6 O1          1.2992    7.6855    0.0574 O.2       1 <0>        -0.4840
      7 N2         -0.9094    7.7185    0.2659 N.am      1 <0>        -0.6738
      8 C5         -0.9816    6.3212    0.2008 C.ar      1 <0>         0.1354
      9 C6         -1.9182    5.6379    0.9651 C.ar      1 <0>        -0.1262
     10 C7         -1.9897    4.2608    0.9006 C.ar      1 <0>        -0.1255
     11 C8         -1.1249    3.5588    0.0713 C.ar      1 <0>         0.1281
     12 C9         -0.1844    4.2417   -0.6888 C.ar      1 <0>        -0.0970
     13 C10        -0.1168    5.6191   -0.6286 C.ar      1 <0>        -0.0967
     14 N3         -1.1974    2.1614    0.0057 N.am      1 <0>        -0.6735
     15 C11        -0.9240    1.5260   -1.1510 C.2       1 <0>         0.5091
     16 O2         -0.7078    2.1662   -2.1582 O.2       1 <0>        -0.5270
     17 C12        -0.8929    0.0199   -1.1942 C.3       1 <0>        -0.1735
     18 S1          2.6254   10.6670    1.2865 S.o2      1 <0>         2.6927
     19 O3          3.6623   11.5327    0.8453 O.2       1 <0>        -0.9555
     20 O4          1.6945   11.0440    2.2918 O.2       1 <0>        -0.9643
     21 C13         3.4069    9.1922    1.8514 C.ar      1 <0>        -0.6703
     22 C14         2.7665    8.3833    2.7734 C.ar      1 <0>        -0.0284
     23 C15         3.3705    7.2249    3.2163 C.ar      1 <0>        -0.0954
     24 C16         4.6355    6.8748    2.7399 C.ar      1 <0>        -0.0514
     25 C17         5.2782    7.6984    1.8135 C.ar      1 <0>        -0.1079
     26 C18         4.6605    8.8513    1.3752 C.ar      1 <0>        -0.0350
     27 C19         5.2906    5.6384    3.2135 C.2       1 <0>         0.4845
     28 O5          6.3910    5.3362    2.7969 O.co2     1 <0>        -0.6234
     29 H1          0.9438   11.8037   -2.1105 H         1 <0>         0.0574
     30 H2          2.4201   12.4945   -1.3953 H         1 <0>         0.0644
     31 H3          2.4786   11.7484   -3.0103 H         1 <0>         0.0692
     32 H4          3.4299   10.2320   -1.2944 H         1 <0>         0.0865
     33 H5          1.9536    9.5412   -2.0096 H         1 <0>         0.0809
     34 H6         -0.2353   10.2057   -0.7596 H         1 <0>         0.1183
     35 H7         -0.0673   10.2536    1.0118 H         1 <0>         0.1252
     36 H8         -1.7156    8.2399    0.4043 H         1 <0>         0.4098
     37 H9         -2.5910    6.1839    1.6099 H         1 <0>         0.1297
     38 H10        -2.7183    3.7294    1.4948 H         1 <0>         0.1284
     39 H11         0.4913    3.6954   -1.3301 H         1 <0>         0.1358
     40 H12         0.6114    6.1506   -1.2234 H         1 <0>         0.1371
     41 H13        -1.4444    1.6512    0.7928 H         1 <0>         0.4114
     42 H14        -0.6617   -0.3098   -2.2071 H         1 <0>         0.0953
     43 H15        -0.1288   -0.3475   -0.5092 H         1 <0>         0.0935
     44 H16        -1.8657   -0.3722   -0.8976 H         1 <0>         0.0896
     45 H17         1.7899    8.6574    3.1442 H         1 <0>         0.1238
     46 H18         2.8677    6.5920    3.9326 H         1 <0>         0.1356
     47 H19         6.2566    7.4333    1.4408 H         1 <0>         0.1345
     48 H20         5.1564    9.4891    0.6584 H         1 <0>         0.1299
     49 O6          4.6678    4.8459    4.1072 O.co2     1 <0>        -0.7458
@<TRIPOS>BOND
     1    1    2 1
     2    1   29 1
     3    1   30 1
     4    1   31 1
     5    2    3 1
     6    2   32 1
     7    2   33 1
     8    3    4 1
     9    3   18 1
    10    4    5 1
    11    4   34 1
    12    4   35 1
    13    5    6 2
    14    5    7 am
    15    7    8 1
    16    7   36 1
    17    8   13 ar
    18    8    9 ar
    19    9   10 ar
    20    9   37 1
    21   10   11 ar
    22   10   38 1
    23   11   12 ar
    24   11   14 1
    25   12   13 ar
    26   12   39 1
    27   13   40 1
    28   14   15 am
    29   14   41 1
    30   15   16 2
    31   15   17 1
    32   17   42 1
    33   17   43 1
    34   17   44 1
    35   18   19 2
    36   18   20 2
    37   18   21 1
    38   21   26 ar
    39   21   22 ar
    40   22   23 ar
    41   22   45 1
    42   23   24 ar
    43   23   46 1
    44   24   25 ar
    45   24   27 1
    46   25   26 ar
    47   25   47 1
    48   26   48 1
    49   27   28 2
    50   27   49 1
@<TRIPOS>MOLECULE
ZINC13271580
   50    51     0     0     0
SMALL
USER_CHARGES
(2S)-2-[3-[2-(isopropylcarbamoylamino)-2-oxo-ethyl]sulfanyl-5-(2-thienyl)-1,2,4-triazol-4-yl]-3-methyl-butanoic acid
@<TRIPOS>ATOM
      1 C1         -0.0127    1.0858    0.0080 C.3       1 <0>        -0.1495
      2 C2         -0.7288    1.5792    1.2668 C.3       1 <0>        -0.0924
      3 C3          0.0111    1.0724    2.5063 C.3       1 <0>        -0.1502
      4 C4         -2.1642    1.0497    1.2777 C.3       1 <0>         0.0842
      5 H1         -2.1494   -0.0402    1.2717 H         1 <0>         0.1023
      6 C5         -2.8696    1.5357    2.5176 C.2       1 <0>         0.4607
      7 O1         -2.2843    2.2339    3.3111 O.co2     1 <0>        -0.5926
      8 N1         -2.8728    1.5350    0.0908 N.pl3     1 <0>        -0.4085
      9 C6         -3.4473    0.7757   -0.9043 C.2       1 <0>         0.2539
     10 N2         -3.9731    1.6126   -1.7715 N.2       1 <0>        -0.2641
     11 N3         -3.7693    2.8232   -1.3918 N.2       1 <0>        -0.3022
     12 C7         -3.1071    2.8363   -0.2574 C.2       1 <0>         0.1558
     13 S1         -2.6100    4.2652    0.6457 S.3       1 <0>         0.1299
     14 C8         -3.2710    5.5624   -0.4297 C.3       1 <0>        -0.1704
     15 C9         -2.9559    6.9129    0.1602 C.2       1 <0>         0.5383
     16 O2         -2.3448    6.9907    1.2044 O.2       1 <0>        -0.4426
     17 N4         -3.3533    8.0342   -0.4731 N.am      1 <0>        -0.6873
     18 C10        -3.0715    9.2420    0.0544 C.2       1 <0>         0.6947
     19 O3         -2.4590    9.3200    1.1013 O.2       1 <0>        -0.5255
     20 N5         -3.4690   10.3634   -0.5789 N.am      1 <0>        -0.7355
     21 C11        -3.1627   11.6762   -0.0054 C.3       1 <0>         0.1512
     22 C12        -1.7590   12.1060   -0.4364 C.3       1 <0>        -0.1659
     23 C13        -4.1848   12.7007   -0.5021 C.3       1 <0>        -0.1601
     24 C14        -3.4692   -0.6939   -0.9819 C.2       1 <0>        -0.0719
     25 C15        -4.2461   -1.5067   -1.7683 C.2       1 <0>        -0.1180
     26 C16        -4.0850   -2.8706   -1.6703 C.2       1 <0>        -0.1538
     27 C17        -3.1746   -3.3687   -0.7942 C.2       1 <0>        -0.1809
     28 S2         -2.4974   -1.8833   -0.0718 S.3       1 <0>         0.0822
     29 H2          0.0021   -0.0041    0.0020 H         1 <0>         0.0543
     30 H3          1.0099    1.4631    0.0003 H         1 <0>         0.0614
     31 H4         -0.5399    1.4469   -0.8751 H         1 <0>         0.0451
     32 H5         -0.7436    2.6691    1.2728 H         1 <0>         0.0882
     33 H6          0.0259   -0.0175    2.5003 H         1 <0>         0.0432
     34 H7          1.0337    1.4497    2.4986 H         1 <0>         0.0526
     35 H8         -0.4990    1.4239    3.4031 H         1 <0>         0.0984
     36 H9         -2.8165    5.4823   -1.4172 H         1 <0>         0.1290
     37 H10        -4.3514    5.4469   -0.5164 H         1 <0>         0.1306
     38 H11        -3.8422    7.9720   -1.3086 H         1 <0>         0.4115
     39 H12        -3.9579   10.3011   -1.4143 H         1 <0>         0.3974
     40 H13        -3.2067   11.6169    1.0821 H         1 <0>         0.0912
     41 H14        -1.5311   13.0828   -0.0097 H         1 <0>         0.0666
     42 H15        -1.0309   11.3761   -0.0825 H         1 <0>         0.0627
     43 H16        -1.7150   12.1653   -1.5239 H         1 <0>         0.0561
     44 H17        -5.1848   12.3945   -0.1951 H         1 <0>         0.0628
     45 H18        -3.9569   13.6775   -0.0754 H         1 <0>         0.0746
     46 H19        -4.1408   12.7600   -1.5896 H         1 <0>         0.0610
     47 H20        -4.9673   -1.0850   -2.4527 H         1 <0>         0.1436
     48 H21        -4.6786   -3.5363   -2.2794 H         1 <0>         0.1378
     49 H22        -2.9247   -4.3989   -0.5874 H         1 <0>         0.1879
     50 O4         -4.1481    1.1928    2.7403 O.co2     1 <0>        -0.7375
@<TRIPOS>BOND
     1    1    2 1
     2    1   29 1
     3    1   30 1
     4    1   31 1
     5    2    3 1
     6    2    4 1
     7    2   32 1
     8    3   33 1
     9    3   34 1
    10    3   35 1
    11    4    5 1
    12    4    6 1
    13    4    8 1
    14    6    7 2
    15    6   50 1
    16    8   12 1
    17    8    9 1
    18    9   10 2
    19    9   24 1
    20   10   11 1
    21   11   12 2
    22   12   13 1
    23   13   14 1
    24   14   15 1
    25   14   36 1
    26   14   37 1
    27   15   16 2
    28   15   17 am
    29   17   18 am
    30   17   38 1
    31   18   19 2
    32   18   20 am
    33   20   21 1
    34   20   39 1
    35   21   22 1
    36   21   23 1
    37   21   40 1
    38   22   41 1
    39   22   42 1
    40   22   43 1
    41   23   44 1
    42   23   45 1
    43   23   46 1
    44   24   28 1
    45   24   25 2
    46   25   26 1
    47   25   47 1
    48   26   27 2
    49   26   48 1
    50   27   28 1
    51   27   49 1
@<TRIPOS>MOLECULE
ZINC39422174
   56    59     0     0     0
SMALL
USER_CHARGES

@<TRIPOS>ATOM
      1 C1          1.3220    1.3418    0.0302 C.3       1 <0>        -0.1496
      2 C2          0.9951   -0.1527    0.0075 C.3       1 <0>         0.0524
      3 O1          1.2458   -0.6754   -1.2986 O.3       1 <0>        -0.3132
      4 C3          1.0044   -1.9997   -1.4903 C.ar      1 <0>         0.1261
      5 C4          0.5310   -2.7777   -0.4458 C.ar      1 <0>        -0.1981
      6 C5          0.2857   -4.1237   -0.6425 C.ar      1 <0>         0.0032
      7 C6          0.5111   -4.6970   -1.8804 C.ar      1 <0>        -0.0786
      8 C7          0.9832   -3.9270   -2.9266 C.ar      1 <0>        -0.0842
      9 C8          1.2267   -2.5757   -2.7376 C.ar      1 <0>         0.0380
     10 O2          1.6863   -1.8155   -3.7672 O.3       1 <0>        -0.2783
     11 C9          3.0175   -1.6432   -3.8811 C.2       1 <0>         0.5019
     12 O3          3.7727   -2.2342   -3.1349 O.2       1 <0>        -0.4830
     13 C10         3.5587   -0.7365   -4.9123 C.ar      1 <0>        -0.1273
     14 C11         2.6925   -0.0512   -5.7679 C.ar      1 <0>        -0.0307
     15 C12         3.2034    0.7945   -6.7286 C.ar      1 <0>        -0.1667
     16 C13         4.5743    0.9659   -6.8470 C.ar      1 <0>         0.1306
     17 C14         5.4388    0.2883   -6.0006 C.ar      1 <0>        -0.1656
     18 C15         4.9388   -0.5559   -5.0327 C.ar      1 <0>        -0.0261
     19 F1          5.0697    1.7959   -7.7910 F         1 <0>        -0.1337
     20 C16        -0.2281   -4.9683    0.4948 C.3       1 <0>         0.1238
     21 H1         -0.5148   -4.3235    1.3256 H         1 <0>         0.0703
     22 C17        -1.4270   -5.7563    0.0336 C.2       1 <0>        -0.4208
     23 C18        -2.4103   -5.3140   -0.8566 C.2       1 <0>         0.1135
     24 N1         -3.2847   -6.2746   -1.0126 N.2       1 <0>        -0.3683
     25 N2         -2.8882   -7.3637   -0.2260 N.pl3     1 <0>        -0.5409
     26 C19        -1.7417   -7.0258    0.4044 C.2       1 <0>         0.4166
     27 O4         -1.0337   -7.8110    1.2560 O.3       1 <0>        -0.7266
     28 C20        -2.4556   -3.9624   -1.5216 C.3       1 <0>        -0.0675
     29 C21         0.8534   -5.9165    0.9449 C.2       1 <0>         0.0005
     30 C22         1.4129   -6.0120    2.1529 C.2       1 <0>        -0.0832
     31 N3          2.3509   -6.9847    2.1720 N.2       1 <0>        -0.1281
     32 N4          2.4990   -7.5743    1.0987 N.2       1 <0>        -0.2138
     33 C23         1.5550   -6.9895    0.1312 C.3       1 <0>         0.1693
     34 H2          0.8425   -7.7379   -0.2157 H         1 <0>         0.1374
     35 O5          2.2579   -6.4101   -0.9699 O.3       1 <0>        -0.5222
     36 C24         1.0482   -5.1518    3.3353 C.3       1 <0>        -0.0697
     37 H3          2.3717    1.4880   -0.2243 H         1 <0>         0.0632
     38 H4          0.6964    1.8616   -0.6954 H         1 <0>         0.0651
     39 H5          1.1307    1.7405    1.0265 H         1 <0>         0.0772
     40 H6          1.6207   -0.6725    0.7332 H         1 <0>         0.0619
     41 H7         -0.0547   -0.2989    0.2620 H         1 <0>         0.0646
     42 H8          0.3541   -2.3324    0.5221 H         1 <0>         0.1306
     43 H9          0.3182   -5.7491   -2.0301 H         1 <0>         0.1318
     44 H10         1.1591   -4.3775   -3.8923 H         1 <0>         0.1295
     45 H11         1.6246   -0.1843   -5.6767 H         1 <0>         0.1516
     46 H12         2.5348    1.3245   -7.3908 H         1 <0>         0.1452
     47 H13         6.5056    0.4256   -6.0972 H         1 <0>         0.1456
     48 H14         5.6128   -1.0797   -4.3710 H         1 <0>         0.1489
     49 H15        -1.9195   -4.0058   -2.4696 H         1 <0>         0.0640
     50 H16        -3.4930   -3.6815   -1.7033 H         1 <0>         0.0558
     51 H17        -1.9872   -3.2224   -0.8728 H         1 <0>         0.0636
     52 H18         2.7234   -7.0535   -1.5217 H         1 <0>         0.3786
     53 H19         0.2452   -5.6285    3.8975 H         1 <0>         0.0715
     54 H20         1.9196   -5.0302    3.9787 H         1 <0>         0.0673
     55 H21         0.7160   -4.1746    2.9850 H         1 <0>         0.0655
     56 H22        -3.3527   -8.2118   -0.1499 H         1 <0>         0.4114
@<TRIPOS>BOND
     1    1    2 1
     2    1   37 1
     3    1   38 1
     4    1   39 1
     5    2    3 1
     6    2   40 1
     7    2   41 1
     8    3    4 1
     9    4    9 ar
    10    4    5 ar
    11    5    6 ar
    12    5   42 1
    13    6    7 ar
    14    6   20 1
    15    7    8 ar
    16    7   43 1
    17    8    9 ar
    18    8   44 1
    19    9   10 1
    20   10   11 1
    21   11   12 2
    22   11   13 1
    23   13   18 ar
    24   13   14 ar
    25   14   15 ar
    26   14   45 1
    27   15   16 ar
    28   15   46 1
    29   16   17 ar
    30   16   19 1
    31   17   18 ar
    32   17   47 1
    33   18   48 1
    34   20   21 1
    35   20   22 1
    36   20   29 1
    37   22   26 2
    38   22   23 1
    39   23   28 1
    40   23   24 2
    41   24   25 1
    42   25   26 1
    43   25   56 1
    44   26   27 1
    45   28   49 1
    46   28   50 1
    47   28   51 1
    48   29   33 1
    49   29   30 2
    50   30   31 1
    51   30   36 1
    52   31   32 2
    53   32   33 1
    54   33   34 1
    55   33   35 1
    56   35   52 1
    57   36   53 1
    58   36   54 1
    59   36   55 1
@<TRIPOS>MOLECULE
ZINC20153060
   52    54     0     0     0
SMALL
USER_CHARGES

@<TRIPOS>ATOM
      1 C1         -0.0167    1.3796    0.0096 C.ar      1 <0>        -0.1140
      2 C2          1.1662    2.0887    0.0021 C.ar      1 <0>        -0.0892
      3 C3          2.3855    1.4066   -0.0131 C.ar      1 <0>        -0.1151
      4 C4          2.3967    0.0095   -0.0207 C.ar      1 <0>        -0.0892
      5 C5          1.2059   -0.6864   -0.0130 C.ar      1 <0>        -0.1139
      6 C6          0.0021   -0.0041    0.0020 C.ar      1 <0>        -0.1393
      7 C7         -1.2948   -0.7716    0.0107 C.3       1 <0>         0.1695
      8 N1         -1.7287   -1.0129   -1.3676 N.pl3     1 <0>        -0.6573
      9 C8         -2.8714   -1.6865   -1.6062 C.2       1 <0>         0.5165
     10 S1         -3.8159   -2.2601   -0.2986 S.2       1 <0>        -0.5191
     11 N2         -3.2706   -1.9085   -2.8742 N.am      1 <0>        -0.6452
     12 C9         -4.4133   -2.5821   -3.1128 C.2       1 <0>         0.5385
     13 O1         -5.0840   -2.9894   -2.1843 O.2       1 <0>        -0.3924
     14 C10        -4.8500   -2.8249   -4.4999 C.ar      1 <0>        -0.1382
     15 C11        -4.0767   -2.3621   -5.5691 C.ar      1 <0>        -0.0351
     16 C12        -4.4819   -2.5868   -6.8540 C.ar      1 <0>        -0.1314
     17 C13        -5.6649   -3.2769   -7.1048 C.ar      1 <0>         0.2761
     18 C14        -6.4412   -3.7414   -6.0464 C.ar      1 <0>        -0.0709
     19 C15        -6.0354   -3.5236   -4.7492 C.ar      1 <0>         0.0118
     20 N3         -7.6990   -4.4738   -6.3160 N.pl3     1 <0>         0.0377
     21 O2         -8.3727   -4.8770   -5.3966 O.2       1 <0>        -0.1706
     22 O3         -8.0526   -4.6688   -7.4555 O.3       1 <0>        -0.1275
     23 N4         -6.0722   -3.5021   -8.4148 N.pl3     1 <0>        -0.6769
     24 C16        -6.9252   -2.5294   -9.1113 C.3       1 <0>         0.1459
     25 C17        -6.2580   -2.1485  -10.4366 C.3       1 <0>        -0.1347
     26 C18        -5.9671   -3.4181  -11.2401 C.3       1 <0>        -0.1164
     27 C19        -5.0049   -4.3118  -10.4543 C.3       1 <0>        -0.1349
     28 C20        -5.6528   -4.7144   -9.1312 C.3       1 <0>         0.1461
     29 C21         3.6552    2.1581   -0.0217 C.2       1 <0>         0.5162
     30 O4          3.6420    3.3809   -0.0154 O.co2     1 <0>        -0.6834
     31 O5          4.7207    1.5581   -0.0350 O.co2     1 <0>        -0.6834
     32 H1         -0.9599    1.9055    0.0260 H         1 <0>         0.1170
     33 H2          1.1501    3.1686    0.0077 H         1 <0>         0.1297
     34 H3          3.3355   -0.5243   -0.0328 H         1 <0>         0.1297
     35 H4          1.2130   -1.7663   -0.0192 H         1 <0>         0.1170
     36 H5         -1.1491   -1.7253    0.5180 H         1 <0>         0.0968
     37 H6         -2.0556   -0.1936    0.5352 H         1 <0>         0.0968
     38 H7         -1.1935   -0.6879   -2.1085 H         1 <0>         0.4008
     39 H8         -2.7354   -1.5835   -3.6151 H         1 <0>         0.4068
     40 H9         -3.1586   -1.8261   -5.3788 H         1 <0>         0.1428
     41 H10        -3.8830   -2.2279   -7.6779 H         1 <0>         0.1540
     42 H11        -6.6333   -3.8867   -3.9264 H         1 <0>         0.1698
     43 H12        -7.9009   -2.9739   -9.3078 H         1 <0>         0.0678
     44 H13        -7.0446   -1.6396   -8.4932 H         1 <0>         0.0637
     45 H14        -6.9249   -1.5018  -11.0069 H         1 <0>         0.0713
     46 H15        -5.3244   -1.6229  -10.2361 H         1 <0>         0.0630
     47 H16        -6.8981   -3.9559  -11.4190 H         1 <0>         0.0657
     48 H17        -5.5147   -3.1482  -12.1944 H         1 <0>         0.0614
     49 H18        -4.7797   -5.2049  -11.0372 H         1 <0>         0.0717
     50 H19        -4.0830   -3.7659  -10.2536 H         1 <0>         0.0627
     51 H20        -4.9329   -5.2656   -8.5263 H         1 <0>         0.0636
     52 H21        -6.5224   -5.3409   -9.3294 H         1 <0>         0.0674
@<TRIPOS>BOND
     1    1    6 ar
     2    1    2 ar
     3    1   32 1
     4    2    3 ar
     5    2   33 1
     6    3    4 ar
     7    3   29 1
     8    4    5 ar
     9    4   34 1
    10    5    6 ar
    11    5   35 1
    12    6    7 1
    13    7    8 1
    14    7   36 1
    15    7   37 1
    16    8    9 1
    17    8   38 1
    18    9   10 2
    19    9   11 1
    20   11   12 am
    21   11   39 1
    22   12   13 2
    23   12   14 1
    24   14   19 ar
    25   14   15 ar
    26   15   16 ar
    27   15   40 1
    28   16   17 ar
    29   16   41 1
    30   17   18 ar
    31   17   23 1
    32   18   19 ar
    33   18   20 1
    34   19   42 1
    35   20   21 2
    36   20   22 1
    37   23   28 1
    38   23   24 1
    39   24   25 1
    40   24   43 1
    41   24   44 1
    42   25   26 1
    43   25   45 1
    44   25   46 1
    45   26   27 1
    46   26   47 1
    47   26   48 1
    48   27   28 1
    49   27   49 1
    50   27   50 1
    51   28   51 1
    52   28   52 1
    53   29   30 2
    54   29   31 1
@<TRIPOS>MOLECULE
ZINC13192138
   54    56     0     0     0
SMALL
USER_CHARGES
2-[2-(1-cyclohexenyl)ethylamino]-5-(1-piperidylsulfonyl)benzoic acid
@<TRIPOS>ATOM
      1 C1          3.5334   -2.4567   -0.8780 C.ar      1 <0>         0.0257
      2 C2          4.0320   -2.6276   -2.1533 C.ar      1 <0>        -0.2407
      3 C3          4.9121   -1.6948   -2.6874 C.ar      1 <0>         0.2995
      4 C4          5.2857   -0.5763   -1.9247 C.ar      1 <0>        -0.2187
      5 C5          4.7673   -0.4152   -0.6368 C.ar      1 <0>         0.0692
      6 C6          3.8957   -1.3512   -0.1249 C.ar      1 <0>        -0.7544
      7 S1          3.2436   -1.1455    1.4990 S.o2      1 <0>         2.6965
      8 O1          4.1624   -0.3223    2.2043 O.2       1 <0>        -0.9616
      9 O2          2.8745   -2.4396    1.9555 O.2       1 <0>        -0.9720
     10 N1          1.8415   -0.2759    1.3571 N.pl3     1 <0>        -0.9998
     11 C7          0.5539   -0.9575    1.1666 C.3       1 <0>         0.1232
     12 C8         -0.1323   -0.3773   -0.0741 C.3       1 <0>        -0.1374
     13 C9         -0.2411    1.1422    0.0718 C.3       1 <0>        -0.1142
     14 C10         1.1604    1.7480    0.1762 C.3       1 <0>        -0.1390
     15 C11         1.8613    1.1919    1.4197 C.3       1 <0>         0.1211
     16 C12         6.2177    0.4208   -2.4786 C.2       1 <0>         0.5045
     17 O3          6.7486    0.2247   -3.5540 O.co2     1 <0>        -0.6375
     18 N2          5.4192   -1.8671   -3.9683 N.pl3     1 <0>        -0.7170
     19 C13         4.9340   -2.9663   -4.8064 C.3       1 <0>         0.1221
     20 C14         5.6493   -2.9308   -6.1585 C.3       1 <0>        -0.0996
     21 C15         5.1502   -4.0616   -7.0207 C.2       1 <0>        -0.1121
     22 C16         4.1932   -3.8115   -7.8556 C.2       1 <0>        -0.1581
     23 C17         3.5868   -4.8347   -8.7707 C.3       1 <0>        -0.0877
     24 C18         4.5089   -6.0504   -8.8866 C.3       1 <0>        -0.1211
     25 C19         4.9081   -6.4931   -7.4732 C.3       1 <0>        -0.1194
     26 C20         5.7977   -5.4061   -6.8621 C.3       1 <0>        -0.0849
     27 H1          2.8532   -3.1872   -0.4656 H         1 <0>         0.1272
     28 H2          3.7411   -3.4896   -2.7353 H         1 <0>         0.1224
     29 H3          5.0498    0.4419   -0.0436 H         1 <0>         0.1424
     30 H4         -0.0768   -0.7982    2.0412 H         1 <0>         0.0692
     31 H5          0.7207   -2.0255    1.0261 H         1 <0>         0.0880
     32 H6         -1.1298   -0.8058   -0.1719 H         1 <0>         0.0705
     33 H7          0.4554   -0.6166   -0.9603 H         1 <0>         0.0700
     34 H8         -0.7512    1.5550   -0.7986 H         1 <0>         0.0613
     35 H9         -0.8079    1.3810    0.9716 H         1 <0>         0.0611
     36 H10         1.7360    1.4887   -0.7123 H         1 <0>         0.0727
     37 H11         1.0830    2.8323    0.2566 H         1 <0>         0.0737
     38 H12         1.3372    1.5265    2.3150 H         1 <0>         0.0700
     39 H13         2.8930    1.5426    1.4452 H         1 <0>         0.0938
     40 H14         6.0947   -1.2597   -4.3083 H         1 <0>         0.4249
     41 H15         5.1371   -3.9167   -4.3128 H         1 <0>         0.0575
     42 H16         3.8603   -2.8592   -4.9605 H         1 <0>         0.0570
     43 H17         5.4461   -1.9805   -6.6522 H         1 <0>         0.0759
     44 H18         6.7230   -3.0380   -6.0044 H         1 <0>         0.0767
     45 H19         3.8073   -2.8036   -7.8965 H         1 <0>         0.1037
     46 H20         2.6223   -5.1495   -8.3721 H         1 <0>         0.0712
     47 H21         3.4440   -4.3966   -9.7585 H         1 <0>         0.0686
     48 H22         3.9836   -6.8620   -9.3901 H         1 <0>         0.0622
     49 H23         5.4011   -5.7810   -9.4519 H         1 <0>         0.0632
     50 H24         4.0138   -6.6249   -6.8642 H         1 <0>         0.0642
     51 H25         5.4577   -7.4329   -7.5252 H         1 <0>         0.0636
     52 H26         6.7655   -5.4024   -7.3635 H         1 <0>         0.0734
     53 H27         5.9430   -5.6143   -5.8021 H         1 <0>         0.0725
     54 O4          6.4816    1.5505   -1.7929 O.co2     1 <0>        -0.7435
@<TRIPOS>BOND
     1    1    6 ar
     2    1    2 ar
     3    1   27 1
     4    2    3 ar
     5    2   28 1
     6    3    4 ar
     7    3   18 1
     8    4    5 ar
     9    4   16 1
    10    5    6 ar
    11    5   29 1
    12    6    7 1
    13    7    8 2
    14    7    9 2
    15    7   10 1
    16   10   15 1
    17   10   11 1
    18   11   12 1
    19   11   30 1
    20   11   31 1
    21   12   13 1
    22   12   32 1
    23   12   33 1
    24   13   14 1
    25   13   34 1
    26   13   35 1
    27   14   15 1
    28   14   36 1
    29   14   37 1
    30   15   38 1
    31   15   39 1
    32   16   17 2
    33   16   54 1
    34   18   19 1
    35   18   40 1
    36   19   20 1
    37   19   41 1
    38   19   42 1
    39   20   21 1
    40   20   43 1
    41   20   44 1
    42   21   26 1
    43   21   22 2
    44   22   23 1
    45   22   45 1
    46   23   24 1
    47   23   46 1
    48   23   47 1
    49   24   25 1
    50   24   48 1
    51   24   49 1
    52   25   26 1
    53   25   50 1
    54   25   51 1
    55   26   52 1
    56   26   53 1
@<TRIPOS>MOLECULE
ZINC25062711
   52    53     0     0     0
SMALL
USER_CHARGES
N-[(1R)-1-(4-butylphenyl)-2-methyl-propyl]-2-oxo-6-(trifluoromethyl)-1H-pyridine-3-carboxamide
@<TRIPOS>ATOM
      1 C1          7.4256    5.3640   -5.5722 C.3       1 <0>        -0.1551
      2 C2          7.7940    4.8400   -4.1828 C.3       1 <0>        -0.1246
      3 C3          6.5878    4.1248   -3.5711 C.3       1 <0>        -0.1167
      4 C4          6.9562    3.6008   -2.1816 C.3       1 <0>        -0.0782
      5 C5          5.7680    2.8963   -1.5791 C.ar      1 <0>        -0.0893
      6 C6          5.5883    1.5418   -1.7886 C.ar      1 <0>        -0.1195
      7 C7          4.4982    0.8956   -1.2363 C.ar      1 <0>        -0.1081
      8 C8          3.5878    1.6040   -0.4745 C.ar      1 <0>        -0.0783
      9 C9          3.7647    2.9595   -0.2694 C.ar      1 <0>        -0.1022
     10 C10         4.8577    3.6046   -0.8173 C.ar      1 <0>        -0.1132
     11 C11         2.3992    0.8997    0.1272 C.3       1 <0>         0.1870
     12 H1          2.1895   -0.0229   -0.4339 H         1 <0>         0.0855
     13 C12         2.6786    0.5955    1.6004 C.3       1 <0>        -0.0967
     14 C13         1.4718   -0.1196    2.2113 C.3       1 <0>        -0.1378
     15 C14         3.9128   -0.3020    1.7107 C.3       1 <0>        -0.1439
     16 N1          1.2174    1.7590    0.0216 N.am      1 <0>        -0.7324
     17 C15        -0.0144    1.2123    0.0087 C.2       1 <0>         0.5848
     18 O1         -0.1429    0.0028   -0.0138 O.2       1 <0>        -0.5863
     19 C16        -1.2034    2.0781    0.0157 C.ar      1 <0>        -0.3365
     20 C17        -2.4804    1.5281    0.1071 C.ar      1 <0>         0.0335
     21 C18        -3.5841    2.3807    0.1108 C.ar      1 <0>        -0.2900
     22 C19        -3.4078    3.7242    0.0263 C.ar      1 <0>         0.1189
     23 N2         -2.1696    4.2656   -0.0627 N.ar      1 <0>        -0.5901
     24 C20        -1.0700    3.4884   -0.0646 C.ar      1 <0>         0.5074
     25 O2          0.0362    3.9945   -0.1399 O.3       1 <0>        -0.6002
     26 C21        -4.6123    4.6299    0.0323 C.3       1 <0>         0.5168
     27 F1         -5.7752    3.8586    0.1313 F         1 <0>        -0.1807
     28 F2         -4.5357    5.5004    1.1247 F         1 <0>        -0.1773
     29 F3         -4.6440    5.3714   -1.1536 F         1 <0>        -0.1773
     30 H2          8.2929    5.8782   -6.0120 H         1 <0>         0.0519
     31 H3          6.5855    6.0691   -5.4873 H         1 <0>         0.0551
     32 H4          7.1335    4.5215   -6.2162 H         1 <0>         0.0536
     33 H5          8.6341    4.1349   -4.2677 H         1 <0>         0.0597
     34 H6          8.0861    5.6825   -3.5387 H         1 <0>         0.0608
     35 H7          5.7477    4.8299   -3.4862 H         1 <0>         0.0653
     36 H8          6.2957    3.2822   -4.2151 H         1 <0>         0.0630
     37 H9          7.7963    2.8958   -2.2665 H         1 <0>         0.0683
     38 H10         7.2483    4.4433   -1.5375 H         1 <0>         0.0697
     39 H11         6.2994    0.9884   -2.3840 H         1 <0>         0.1172
     40 H12         4.3576   -0.1626   -1.4002 H         1 <0>         0.1196
     41 H13         3.0511    3.5138    0.3221 H         1 <0>         0.1265
     42 H14         4.9979    4.6630   -0.6540 H         1 <0>         0.1196
     43 H15         2.8598    1.5362    2.1411 H         1 <0>         0.0680
     44 H16         1.6727   -0.3383    3.2705 H         1 <0>         0.0410
     45 H17         1.2906   -1.0603    1.6706 H         1 <0>         0.0607
     46 H18         0.5845    0.5257    2.1320 H         1 <0>         0.0581
     47 H19         4.1136   -0.5207    2.7699 H         1 <0>         0.0514
     48 H20         4.7804    0.2121    1.2715 H         1 <0>         0.0560
     49 H21         3.7316   -1.2427    1.1700 H         1 <0>         0.0535
     50 H22         1.3354    2.8505   -0.0472 H         1 <0>         0.4360
     51 H23        -2.6134    0.4585    0.1744 H         1 <0>         0.1234
     52 H24        -4.5811    1.9714    0.1807 H         1 <0>         0.1219
@<TRIPOS>BOND
     1    1    2 1
     2    1   30 1
     3    1   31 1
     4    1   32 1
     5    2    3 1
     6    2   33 1
     7    2   34 1
     8    3    4 1
     9    3   35 1
    10    3   36 1
    11    4    5 1
    12    4   37 1
    13    4   38 1
    14    5   10 ar
    15    5    6 ar
    16    6    7 ar
    17    6   39 1
    18    7    8 ar
    19    7   40 1
    20    8    9 ar
    21    8   11 1
    22    9   10 ar
    23    9   41 1
    24   10   42 1
    25   11   12 1
    26   11   13 1
    27   11   16 1
    28   13   14 1
    29   13   15 1
    30   13   43 1
    31   14   44 1
    32   14   45 1
    33   14   46 1
    34   15   47 1
    35   15   48 1
    36   15   49 1
    37   16   17 am
    38   16   50 1
    39   17   18 2
    40   17   19 1
    41   19   24 ar
    42   19   20 ar
    43   20   21 ar
    44   20   51 1
    45   21   22 ar
    46   21   52 1
    47   22   23 ar
    48   22   26 1
    49   23   24 ar
    50   24   25 1
    51   26   27 1
    52   26   28 1
    53   26   29 1
@<TRIPOS>MOLECULE
ZINC36053698
   59    61     0     0     0
SMALL
USER_CHARGES

@<TRIPOS>ATOM
      1 C1         -3.0797    0.2895   -1.9877 C.3       1 <0>        -0.1648
      2 C2         -1.6458    0.6150   -1.5646 C.3       1 <0>         0.1136
      3 N1         -0.7279    0.2901   -2.6592 N.am      1 <0>        -0.6110
      4 C3         -0.4003    1.3031   -3.6655 C.3       1 <0>         0.1098
      5 C4          0.7441    2.1797   -3.1529 C.3       1 <0>        -0.1685
      6 C5         -0.1849   -0.9408   -2.7404 C.2       1 <0>         0.6112
      7 O1         -0.5277   -1.8112   -1.9583 O.2       1 <0>        -0.5403
      8 C6          0.7747   -1.2206   -3.7250 C.2       1 <0>        -0.3672
      9 C7          0.4011   -1.5285   -5.0173 C.2       1 <0>         0.2254
     10 N2          1.3172   -1.7904   -5.9365 N.2       1 <0>        -0.5933
     11 C8          2.6168   -1.7845   -5.7247 C.2       1 <0>         0.3243
     12 N3          3.1912   -1.5043   -4.5162 N.pl3     1 <0>        -0.5253
     13 C9          2.2528   -1.1885   -3.4065 C.3       1 <0>         0.2740
     14 H1          2.4938   -0.1937   -3.0318 H         1 <0>         0.0715
     15 C10         2.5092   -2.1723   -2.2940 C.ar      1 <0>        -0.1024
     16 C11         2.8732   -3.4722   -2.5909 C.ar      1 <0>        -0.0576
     17 C12         3.1084   -4.3747   -1.5708 C.ar      1 <0>        -0.1275
     18 C13         2.9798   -3.9785   -0.2524 C.ar      1 <0>        -0.0962
     19 C14         2.6165   -2.6794    0.0468 C.ar      1 <0>        -0.1554
     20 C15         2.3857   -1.7728   -0.9743 C.ar      1 <0>         0.1168
     21 F1          2.0350   -0.5011   -0.6828 F         1 <0>        -0.1416
     22 C16         4.5703   -1.5377   -4.4549 C.2       1 <0>         0.2365
     23 C17         5.2409   -1.8430   -5.5875 C.2       1 <0>        -0.3081
     24 S1          3.9117   -2.0863   -6.7489 S.3       1 <0>         0.1119
     25 C18         5.2836   -1.2508   -3.2020 C.2       1 <0>        -0.4707
     26 C19         6.6265   -1.1480   -3.2000 C.2       1 <0>         0.5032
     27 O2          7.3098   -1.1734   -4.3701 O.3       1 <0>        -0.7040
     28 N4          7.3090   -1.0163   -2.0024 N.pl3     1 <0>        -0.7513
     29 C20         8.7569   -0.7935   -2.0051 C.3       1 <0>         0.1494
     30 C21         9.0418    0.7087   -2.0599 C.3       1 <0>        -0.1581
     31 C22         9.3658   -1.3819   -0.7307 C.3       1 <0>        -0.1567
     32 C23        -1.0599   -1.5673   -5.3846 C.3       1 <0>        -0.1005
     33 H2         -3.3411    0.8773   -2.8677 H         1 <0>         0.0527
     34 H3         -3.1568   -0.7718   -2.2237 H         1 <0>         0.0592
     35 H4         -3.7626    0.5313   -1.1733 H         1 <0>         0.0602
     36 H5         -1.5686    1.6763   -1.3286 H         1 <0>         0.0701
     37 H6         -1.3844    0.0272   -0.6846 H         1 <0>         0.0787
     38 H7         -0.0959    0.8120   -4.5897 H         1 <0>         0.0821
     39 H8         -1.2763    1.9234   -3.8551 H         1 <0>         0.0706
     40 H9          1.6454    1.5758   -3.0478 H         1 <0>         0.0583
     41 H10         0.9285    2.9874   -3.8612 H         1 <0>         0.0625
     42 H11         0.4738    2.6005   -2.1844 H         1 <0>         0.0553
     43 H12         2.9735   -3.7829   -3.6204 H         1 <0>         0.1157
     44 H13         3.3924   -5.3904   -1.8038 H         1 <0>         0.1229
     45 H14         3.1632   -4.6847    0.5438 H         1 <0>         0.1257
     46 H15         2.5159   -2.3701    1.0767 H         1 <0>         0.1276
     47 H16         6.3062   -1.9202   -5.7472 H         1 <0>         0.2294
     48 H17         4.7308   -1.1224   -2.2831 H         1 <0>         0.0805
     49 H18         6.8283   -1.0715   -1.1616 H         1 <0>         0.3823
     50 H19         9.1976   -1.2789   -2.8759 H         1 <0>         0.0829
     51 H20         8.6785    1.1810   -1.1472 H         1 <0>         0.0436
     52 H21        10.1156    0.8718   -2.1509 H         1 <0>         0.0494
     53 H22         8.5340    1.1436   -2.9209 H         1 <0>         0.0587
     54 H23         9.1629   -2.4521   -0.6916 H         1 <0>         0.0552
     55 H24        10.4431   -1.2162   -0.7327 H         1 <0>         0.0593
     56 H25         8.9252   -0.8965    0.1401 H         1 <0>         0.0503
     57 H26        -1.3555   -0.6044   -5.8011 H         1 <0>         0.0750
     58 H27        -1.2278   -2.3501   -6.1244 H         1 <0>         0.0774
     59 H28        -1.6530   -1.7756   -4.4942 H         1 <0>         0.0678
@<TRIPOS>BOND
     1    1    2 1
     2    1   33 1
     3    1   34 1
     4    1   35 1
     5    2    3 1
     6    2   36 1
     7    2   37 1
     8    3    4 1
     9    3    6 am
    10    4    5 1
    11    4   38 1
    12    4   39 1
    13    5   40 1
    14    5   41 1
    15    5   42 1
    16    6    7 2
    17    6    8 1
    18    8   13 1
    19    8    9 2
    20    9   10 1
    21    9   32 1
    22   10   11 2
    23   11   24 1
    24   11   12 1
    25   12   13 1
    26   12   22 1
    27   13   14 1
    28   13   15 1
    29   15   20 ar
    30   15   16 ar
    31   16   17 ar
    32   16   43 1
    33   17   18 ar
    34   17   44 1
    35   18   19 ar
    36   18   45 1
    37   19   20 ar
    38   19   46 1
    39   20   21 1
    40   22   23 2
    41   22   25 1
    42   23   24 1
    43   23   47 1
    44   25   26 2
    45   25   48 1
    46   26   27 1
    47   26   28 1
    48   28   29 1
    49   28   49 1
    50   29   30 1
    51   29   31 1
    52   29   50 1
    53   30   51 1
    54   30   52 1
    55   30   53 1
    56   31   54 1
    57   31   55 1
    58   31   56 1
    59   32   57 1
    60   32   58 1
    61   32   59 1
@<TRIPOS>MOLECULE
ZINC39898381
   51    54     0     0     0
SMALL
USER_CHARGES

@<TRIPOS>ATOM
      1 C1         -0.0187    1.5258    0.0104 C.3       1 <0>        -0.1464
      2 C2          0.0021   -0.0041    0.0020 C.3       1 <0>        -0.1464
      3 C3         -1.4333   -0.5336    0.0129 C.3       1 <0>         0.1414
      4 N1         -1.4134   -1.9985    0.0048 N.am      1 <0>        -0.5992
      5 C4         -1.4074   -2.8443   -1.1944 C.3       1 <0>         0.2627
      6 H1         -0.5194   -2.6395   -1.7924 H         1 <0>         0.1093
      7 C5         -1.3859   -4.2678   -0.7084 C.2       1 <0>        -0.1978
      8 C6         -1.3690   -5.5885   -1.0250 C.2       1 <0>         0.1865
      9 N2         -1.3541   -6.2742    0.1559 N.pl3     1 <0>        -0.3884
     10 N3         -1.3610   -5.4491    1.1418 N.2       1 <0>        -0.2299
     11 H2         -1.3404   -7.2405    0.2386 H         1 <0>         0.4462
     12 C7         -1.3803   -4.2061    0.7036 C.2       1 <0>        -0.0506
     13 C8         -1.3919   -2.7849    1.0945 C.2       1 <0>         0.6163
     14 O1         -1.3861   -2.3810    2.2411 O.2       1 <0>        -0.5295
     15 C9         -1.3676   -6.1711   -2.3849 C.ar      1 <0>        -0.2083
     16 C10        -2.4546   -6.9258   -2.8249 C.ar      1 <0>        -0.0271
     17 C11        -2.4478   -7.4671   -4.0951 C.ar      1 <0>        -0.1661
     18 C12        -1.3646   -7.2635   -4.9339 C.ar      1 <0>        -0.0463
     19 C13        -0.2822   -6.5175   -4.5073 C.ar      1 <0>        -0.2479
     20 C14        -0.2781   -5.9627   -3.2379 C.ar      1 <0>         0.3031
     21 O2          0.7830   -5.2242   -2.8202 O.3       1 <0>        -0.6970
     22 Cl1        -3.8011   -8.4065   -4.6424 Cl        1 <0>        -0.1241
     23 C15        -2.6493   -2.5937   -2.0106 C.ar      1 <0>        -0.0395
     24 C16        -3.8654   -2.4082   -1.3789 C.ar      1 <0>        -0.1358
     25 C17        -5.0064   -2.1781   -2.1247 C.ar      1 <0>        -0.0836
     26 C18        -4.9343   -2.1334   -3.5037 C.ar      1 <0>        -0.2099
     27 C19        -3.7157   -2.3192   -4.1398 C.ar      1 <0>         0.1317
     28 C20        -2.5709   -2.5439   -3.3887 C.ar      1 <0>        -0.1221
     29 O3         -3.6423   -2.2756   -5.4961 O.3       1 <0>        -0.3076
     30 C21        -4.8597   -2.0342   -6.2043 C.3       1 <0>         0.0876
     31 C22        -4.5847   -2.0205   -7.6860 C.2       1 <0>        -0.1527
     32 C23        -5.3793   -2.6630   -8.5056 C.2       1 <0>        -0.1738
     33 H3          1.0039    1.9031    0.0027 H         1 <0>         0.0566
     34 H4         -0.5459    1.8868   -0.8726 H         1 <0>         0.0553
     35 H5         -0.5289    1.8773    0.9072 H         1 <0>         0.0549
     36 H6          0.5123   -0.3556   -0.8948 H         1 <0>         0.0695
     37 H7          0.5293   -0.3651    0.8851 H         1 <0>         0.0681
     38 H8         -1.9435   -0.1821    0.9097 H         1 <0>         0.0849
     39 H9         -1.9605   -0.1726   -0.8702 H         1 <0>         0.0839
     40 H10        -3.3004   -7.0869   -2.1730 H         1 <0>         0.1023
     41 H11        -1.3656   -7.6901   -5.9261 H         1 <0>         0.1048
     42 H12         0.5596   -6.3631   -5.1660 H         1 <0>         0.1088
     43 H13        -3.9239   -2.4435   -0.3010 H         1 <0>         0.1175
     44 H14        -5.9550   -2.0336   -1.6290 H         1 <0>         0.1210
     45 H15        -5.8261   -1.9544   -4.0860 H         1 <0>         0.1227
     46 H16        -1.6201   -2.6841   -3.8814 H         1 <0>         0.1352
     47 H17        -5.5760   -2.8231   -5.9750 H         1 <0>         0.0661
     48 H18        -5.2709   -1.0710   -5.9022 H         1 <0>         0.0689
     49 H19        -3.7325   -1.4810   -8.0721 H         1 <0>         0.1195
     50 H20        -6.2315   -3.2026   -8.1195 H         1 <0>         0.0988
     51 H21        -5.1822   -2.6532   -9.5674 H         1 <0>         0.1065
@<TRIPOS>BOND
     1    1    2 1
     2    1   33 1
     3    1   34 1
     4    1   35 1
     5    2    3 1
     6    2   36 1
     7    2   37 1
     8    3    4 1
     9    3   38 1
    10    3   39 1
    11    4   13 am
    12    4    5 1
    13    5    6 1
    14    5    7 1
    15    5   23 1
    16    7   12 1
    17    7    8 2
    18    8   15 1
    19    8    9 1
    20    9   11 1
    21    9   10 1
    22   10   12 2
    23   12   13 1
    24   13   14 2
    25   15   20 ar
    26   15   16 ar
    27   16   17 ar
    28   16   40 1
    29   17   18 ar
    30   17   22 1
    31   18   19 ar
    32   18   41 1
    33   19   20 ar
    34   19   42 1
    35   20   21 1
    36   23   28 ar
    37   23   24 ar
    38   24   25 ar
    39   24   43 1
    40   25   26 ar
    41   25   44 1
    42   26   27 ar
    43   26   45 1
    44   27   28 ar
    45   27   29 1
    46   28   46 1
    47   29   30 1
    48   30   31 1
    49   30   47 1
    50   30   48 1
    51   31   32 2
    52   31   49 1
    53   32   50 1
    54   32   51 1
@<TRIPOS>MOLECULE
ZINC58647633
   58    60     0     0     0
SMALL
USER_CHARGES

@<TRIPOS>ATOM
      1 C1         -0.0187    1.5258    0.0104 C.3       1 <0>        -0.1543
      2 C2          0.0021   -0.0041    0.0020 C.3       1 <0>        -0.1161
      3 C3         -1.4333   -0.5336    0.0129 C.3       1 <0>        -0.0524
      4 H1         -1.9862   -0.1019   -0.8214 H         1 <0>         0.0773
      5 C4         -2.1103   -0.1453    1.3289 C.3       1 <0>        -0.1460
      6 C5         -1.4159   -2.0348   -0.1192 C.ar      1 <0>        -0.0740
      7 C6         -0.7736   -2.8049    0.8322 C.ar      1 <0>        -0.1115
      8 C7         -0.7576   -4.1818    0.7111 C.ar      1 <0>        -0.0975
      9 C8         -1.3844   -4.7887   -0.3612 C.ar      1 <0>        -0.0888
     10 C9         -2.0275   -4.0186   -1.3121 C.ar      1 <0>        -0.1020
     11 C10        -2.0471   -2.6419   -1.1887 C.ar      1 <0>        -0.1120
     12 C11        -1.3662   -6.2897   -0.4938 C.3       1 <0>         0.2721
     13 H2         -1.1474   -6.7374    0.4756 H         1 <0>         0.1158
     14 C12        -0.3051   -6.6936   -1.4847 C.2       1 <0>        -0.1369
     15 C13         0.9453   -7.1628   -1.2527 C.2       1 <0>        -0.1517
     16 C14         1.7551   -7.4734   -2.3290 C.2       1 <0>        -0.1523
     17 C15         1.2750   -7.2996   -3.5846 C.2       1 <0>        -0.1843
     18 S1         -0.3714   -6.6857   -3.2688 S.3       1 <0>         0.0507
     19 N1         -2.6741   -6.7545   -0.9623 N.am      1 <0>        -0.7276
     20 C16        -3.0803   -8.0103   -0.6897 C.2       1 <0>         0.5660
     21 O1         -2.3615   -8.7573   -0.0550 O.2       1 <0>        -0.5301
     22 C17        -4.4004   -8.4794   -1.1625 C.ar      1 <0>        -0.0965
     23 C18        -5.2255   -7.6252   -1.8965 C.ar      1 <0>        -0.1900
     24 C19        -6.4570   -8.0652   -2.3367 C.ar      1 <0>        -0.0886
     25 C20        -6.8789   -9.3508   -2.0532 C.ar      1 <0>        -0.1329
     26 C21        -6.0651  -10.2090   -1.3232 C.ar      1 <0>         0.2766
     27 C22        -4.8230   -9.7784   -0.8817 C.ar      1 <0>        -0.1881
     28 N2         -6.4961  -11.5072   -1.0389 N.2       1 <0>        -1.0930
     29 S2         -5.5264  -12.5297   -0.1692 S.o2      1 <0>         2.5225
     30 O2         -4.3789  -12.7226   -0.9848 O.2       1 <0>        -1.0264
     31 O3         -5.4121  -11.9208    1.1097 O.2       1 <0>        -1.0272
     32 C23        -6.4705  -14.0736   -0.0440 C.3       1 <0>        -0.6378
     33 C24        -8.2258   -9.8231   -2.5368 C.3       1 <0>        -0.0812
     34 H3          1.0039    1.9031    0.0027 H         1 <0>         0.0530
     35 H4         -0.5459    1.8868   -0.8726 H         1 <0>         0.0535
     36 H5         -0.5289    1.8773    0.9072 H         1 <0>         0.0568
     37 H6          0.5123   -0.3556   -0.8948 H         1 <0>         0.0629
     38 H7          0.5293   -0.3651    0.8851 H         1 <0>         0.0634
     39 H8         -2.1228    0.9405    1.4244 H         1 <0>         0.0593
     40 H9         -3.1329   -0.5225    1.3366 H         1 <0>         0.0566
     41 H10        -1.5574   -0.5770    2.1631 H         1 <0>         0.0565
     42 H11        -0.2839   -2.3308    1.6700 H         1 <0>         0.1222
     43 H12        -0.2552   -4.7835    1.4540 H         1 <0>         0.1249
     44 H13        -2.5169   -4.4926   -2.1501 H         1 <0>         0.1211
     45 H14        -2.5528   -2.0404   -1.9296 H         1 <0>         0.1231
     46 H15         1.3035   -7.2917   -0.2421 H         1 <0>         0.1314
     47 H16         2.7556   -7.8487   -2.1718 H         1 <0>         0.1308
     48 H17         1.7609   -7.4876   -4.5306 H         1 <0>         0.1826
     49 H18        -3.2478   -6.1584   -1.4687 H         1 <0>         0.4014
     50 H19        -4.9000   -6.6198   -2.1195 H         1 <0>         0.1012
     51 H20        -7.0937   -7.4028   -2.9043 H         1 <0>         0.1093
     52 H21        -4.1872  -10.4451   -0.3181 H         1 <0>         0.1165
     53 H22        -6.6697  -14.4598   -1.0436 H         1 <0>         0.1146
     54 H23        -5.8947  -14.8069    0.5207 H         1 <0>         0.1006
     55 H24        -7.4145  -13.8819    0.4662 H         1 <0>         0.1146
     56 H25        -8.1205  -10.2703   -3.5253 H         1 <0>         0.0493
     57 H26        -8.6215  -10.5646   -1.8428 H         1 <0>         0.0736
     58 H27        -8.9094   -8.9759   -2.5922 H         1 <0>         0.0388
@<TRIPOS>BOND
     1    1    2 1
     2    1   34 1
     3    1   35 1
     4    1   36 1
     5    2    3 1
     6    2   37 1
     7    2   38 1
     8    3    4 1
     9    3    5 1
    10    3    6 1
    11    5   39 1
    12    5   40 1
    13    5   41 1
    14    6   11 ar
    15    6    7 ar
    16    7    8 ar
    17    7   42 1
    18    8    9 ar
    19    8   43 1
    20    9   10 ar
    21    9   12 1
    22   10   11 ar
    23   10   44 1
    24   11   45 1
    25   12   13 1
    26   12   14 1
    27   12   19 1
    28   14   18 1
    29   14   15 2
    30   15   16 1
    31   15   46 1
    32   16   17 2
    33   16   47 1
    34   17   18 1
    35   17   48 1
    36   19   20 am
    37   19   49 1
    38   20   21 2
    39   20   22 1
    40   22   27 ar
    41   22   23 ar
    42   23   24 ar
    43   23   50 1
    44   24   25 ar
    45   24   51 1
    46   25   26 ar
    47   25   33 1
    48   26   27 ar
    49   26   28 1
    50   27   52 1
    51   28   29 1
    52   29   30 2
    53   29   31 2
    54   29   32 1
    55   32   53 1
    56   32   54 1
    57   32   55 1
    58   33   56 1
    59   33   57 1
    60   33   58 1
@<TRIPOS>MOLECULE
ZINC02121919
   57    59     0     0     0
SMALL
USER_CHARGES
(2S)-3-methyl-2-[[2-[[2-(3,5,9-trimethyl-7-oxo-furo[3,2-g]chromen-6-yl)acetyl]amino]acetyl]amino]butanoic acid
@<TRIPOS>ATOM
      1 C1         -1.1885    3.8603   16.3542 C.3       1 <0>        -0.0850
      2 C2         -2.3926    3.0076   16.0473 C.2       1 <0>        -0.1677
      3 C3         -3.5002    2.8838   16.7888 C.2       1 <0>         0.0041
      4 O1         -4.3625    2.0352   16.2012 O.3       1 <0>        -0.1864
      5 C4         -3.8593    1.5612   15.0430 C.ar      1 <0>         0.1035
      6 C5         -2.5869    2.1443   14.8738 C.ar      1 <0>        -0.1435
      7 C6         -1.8172    1.8426   13.7593 C.ar      1 <0>        -0.0087
      8 C7         -2.3157    0.9559   12.8047 C.ar      1 <0>        -0.1472
      9 C8         -1.5270    0.6100   11.6181 C.2       1 <0>         0.0425
     10 C9         -2.0637   -0.2556   10.7211 C.2       1 <0>        -0.1995
     11 C10        -3.3439   -0.8020   10.9526 C.2       1 <0>         0.5257
     12 O2         -3.8112   -1.5810   10.1415 O.2       1 <0>        -0.4543
     13 O3         -4.0600   -0.4866   12.0424 O.3       1 <0>        -0.2651
     14 C11        -3.5886    0.3727   12.9740 C.ar      1 <0>         0.1672
     15 C12        -4.3478    0.6800   14.0898 C.ar      1 <0>        -0.0921
     16 C13        -5.7080    0.0563   14.2690 C.3       1 <0>        -0.1080
     17 C14        -1.2918   -0.6371    9.4843 C.3       1 <0>        -0.0865
     18 C15        -1.6245    0.3205    8.3692 C.2       1 <0>         0.5205
     19 O4         -2.4110    1.2238    8.5601 O.2       1 <0>        -0.5404
     20 N1         -1.0481    0.1732    7.1599 N.am      1 <0>        -0.7114
     21 C16        -1.3716    1.1041    6.0759 C.3       1 <0>         0.1027
     22 C17        -0.5997    0.7226    4.8391 C.2       1 <0>         0.5107
     23 O5          0.1471   -0.2327    4.8609 O.2       1 <0>        -0.5445
     24 N2         -0.7392    1.4432    3.7087 N.am      1 <0>        -0.6940
     25 C18         0.0111    1.0724    2.5063 C.3       1 <0>         0.1001
     26 H1          0.1037   -0.0125    2.4560 H         1 <0>         0.0879
     27 C19        -0.7288    1.5792    1.2668 C.3       1 <0>        -0.0806
     28 C20        -0.0127    1.0858    0.0080 C.3       1 <0>        -0.1557
     29 C21        -0.7496    3.1091    1.2752 C.3       1 <0>        -0.1451
     30 C22         1.3840    1.6917    2.5600 C.2       1 <0>         0.4656
     31 O6          1.7029    2.3729    3.5056 O.co2     1 <0>        -0.6311
     32 C23        -0.1594    1.2035   11.3979 C.3       1 <0>        -0.1335
     33 H2         -1.3251    4.8512   15.9211 H         1 <0>         0.0733
     34 H3         -1.0717    3.9488   17.4343 H         1 <0>         0.0713
     35 H4         -0.2978    3.3976   15.9291 H         1 <0>         0.0702
     36 H5         -3.6760    3.3921   17.7254 H         1 <0>         0.2110
     37 H6         -0.8424    2.2899   13.6320 H         1 <0>         0.1466
     38 H7         -5.6090   -0.8795   14.8191 H         1 <0>         0.0763
     39 H8         -6.3501    0.7388   14.8257 H         1 <0>         0.0728
     40 H9         -6.1486   -0.1414   13.2918 H         1 <0>         0.0792
     41 H10        -1.5614   -1.6501    9.1857 H         1 <0>         0.1164
     42 H11        -0.2233   -0.5926    9.6947 H         1 <0>         0.1150
     43 H12        -0.4191   -0.5493    7.0072 H         1 <0>         0.4136
     44 H13        -1.1019    2.1172    6.3745 H         1 <0>         0.0984
     45 H14        -2.4401    1.0596    5.8655 H         1 <0>         0.0944
     46 H15        -1.3365    2.2073    3.6913 H         1 <0>         0.3945
     47 H16        -1.7514    1.2020    1.2746 H         1 <0>         0.0584
     48 H17         0.0021   -0.0041    0.0020 H         1 <0>         0.0440
     49 H18         1.0099    1.4631    0.0003 H         1 <0>         0.1061
     50 H19        -0.5399    1.4469   -0.8751 H         1 <0>         0.0381
     51 H20        -1.2768    3.4701    0.3922 H         1 <0>         0.0496
     52 H21        -1.2598    3.4606    2.1720 H         1 <0>         0.0443
     53 H22         0.2730    3.4864    1.2675 H         1 <0>         0.0669
     54 H23        -0.2530    2.1341   10.8382 H         1 <0>         0.0965
     55 H24         0.3088    1.4046   12.3615 H         1 <0>         0.0810
     56 H25         0.4552    0.5011   10.8349 H         1 <0>         0.0881
     57 O7          2.2525    1.4865    1.5574 O.co2     1 <0>        -0.7564
@<TRIPOS>BOND
     1    1    2 1
     2    1   33 1
     3    1   34 1
     4    1   35 1
     5    2    6 1
     6    2    3 2
     7    3    4 1
     8    3   36 1
     9    4    5 1
    10    5   15 ar
    11    5    6 ar
    12    6    7 ar
    13    7    8 ar
    14    7   37 1
    15    8   14 ar
    16    8    9 1
    17    9   10 2
    18    9   32 1
    19   10   11 1
    20   10   17 1
    21   11   12 2
    22   11   13 1
    23   13   14 1
    24   14   15 ar
    25   15   16 1
    26   16   38 1
    27   16   39 1
    28   16   40 1
    29   17   18 1
    30   17   41 1
    31   17   42 1
    32   18   19 2
    33   18   20 am
    34   20   21 1
    35   20   43 1
    36   21   22 1
    37   21   44 1
    38   21   45 1
    39   22   23 2
    40   22   24 am
    41   24   25 1
    42   24   46 1
    43   25   26 1
    44   25   27 1
    45   25   30 1
    46   27   28 1
    47   27   29 1
    48   27   47 1
    49   28   48 1
    50   28   49 1
    51   28   50 1
    52   29   51 1
    53   29   52 1
    54   29   53 1
    55   30   31 2
    56   30   57 1
    57   32   54 1
    58   32   55 1
    59   32   56 1
@<TRIPOS>MOLECULE
ZINC19592308
   46    49     0     0     0
SMALL
USER_CHARGES
N-[2-[6-methylamino-2-(4-pyridyl)pyrimidin-4-yl]ethyl]-2-oxo-3H-1,3-benzoxazole-5-carboxamide
@<TRIPOS>ATOM
      1 C1         -4.8038    8.0784    0.0846 C.3       1 <0>         0.0924
      2 N1         -3.5563    7.3105    0.0700 N.pl3     1 <0>        -0.7272
      3 C2         -3.5953    5.9255    0.0643 C.ar      1 <0>         0.4446
      4 C3         -4.8191    5.2506    0.0718 C.ar      1 <0>        -0.2880
      5 C4         -4.8098    3.8688    0.0652 C.ar      1 <0>         0.2170
      6 N2         -3.6506    3.2289    0.0469 N.ar      1 <0>        -0.5408
      7 C5         -2.5049    3.8947    0.0450 C.ar      1 <0>         0.4014
      8 N3         -2.4703    5.2197    0.0510 N.ar      1 <0>        -0.5718
      9 C6         -1.2283    3.1377    0.0297 C.ar      1 <0>         0.0015
     10 C7         -1.2226    1.7405    0.0173 C.ar      1 <0>        -0.1210
     11 C8         -0.0126    1.0758    0.0080 C.ar      1 <0>         0.0921
     12 N4          1.1256    1.7419    0.0007 N.ar      1 <0>        -0.4757
     13 C9          1.1641    3.0602    0.0069 C.ar      1 <0>         0.0880
     14 C10         0.0005    3.8029    0.0216 C.ar      1 <0>        -0.1269
     15 C11        -6.1049    3.0984    0.0730 C.3       1 <0>        -0.0829
     16 C12        -6.1308    2.1322   -1.1130 C.3       1 <0>         0.1336
     17 N5         -7.3898    1.3833   -1.1054 N.am      1 <0>        -0.7441
     18 C13        -7.6352    0.4679   -2.0638 C.2       1 <0>         0.5711
     19 O1         -6.8117    0.2637   -2.9345 O.2       1 <0>        -0.5456
     20 C14        -8.9044   -0.2870   -2.0561 C.ar      1 <0>        -0.1352
     21 C15        -9.8523   -0.0533   -1.0554 C.ar      1 <0>        -0.1385
     22 C16       -11.0362   -0.7563   -1.0459 C.ar      1 <0>        -0.0906
     23 C17       -11.2935   -1.7009   -2.0309 C.ar      1 <0>        -0.0057
     24 C18       -10.3502   -1.9382   -3.0334 C.ar      1 <0>         0.0907
     25 C19        -9.1623   -1.2313   -3.0513 C.ar      1 <0>        -0.0663
     26 N6        -10.8881   -2.9249   -3.8607 N.2       1 <0>        -0.6521
     27 C20       -12.0973   -3.2535   -3.3646 C.2       1 <0>         0.5494
     28 O2        -12.8477   -4.0849   -3.8379 O.3       1 <0>        -0.5725
     29 O3        -12.3450   -2.5218   -2.2667 O.3       1 <0>        -0.3075
     30 H1         -4.5724    9.1538    0.0872 H         1 <0>         0.0834
     31 H2         -5.3797    7.8251    0.9869 H         1 <0>         0.0586
     32 H3         -5.3959    7.8329   -0.8093 H         1 <0>         0.0594
     33 H4         -2.5886    7.8335    0.0636 H         1 <0>         0.4321
     34 H5         -5.7509    5.7966    0.0830 H         1 <0>         0.1435
     35 H6         -2.1509    1.1886    0.0188 H         1 <0>         0.1512
     36 H7          0.0021   -0.0041    0.0020 H         1 <0>         0.1622
     37 H8          2.1186    3.5653    0.0002 H         1 <0>         0.1590
     38 H9          0.0393    4.8822    0.0270 H         1 <0>         0.1455
     39 H10        -6.1876    2.5298    1.0110 H         1 <0>         0.0992
     40 H11        -6.9490    3.7993   -0.0066 H         1 <0>         0.0917
     41 H12        -6.0481    2.7008   -2.0510 H         1 <0>         0.0621
     42 H13        -5.2868    1.4313   -1.0335 H         1 <0>         0.0788
     43 H14        -8.1349    1.5680   -0.3175 H         1 <0>         0.4183
     44 H15        -9.6553    0.6803   -0.2877 H         1 <0>         0.1194
     45 H16       -11.7657   -0.5730   -0.2709 H         1 <0>         0.1184
     46 H17        -8.4353   -1.4120   -3.8292 H         1 <0>         0.1278
@<TRIPOS>BOND
     1    1    2 1
     2    1   30 1
     3    1   31 1
     4    1   32 1
     5    2    3 1
     6    2   33 1
     7    3    8 ar
     8    3    4 ar
     9    4    5 ar
    10    4   34 1
    11    5    6 ar
    12    5   15 1
    13    6    7 ar
    14    7    8 ar
    15    7    9 1
    16    9   14 ar
    17    9   10 ar
    18   10   11 ar
    19   10   35 1
    20   11   12 ar
    21   11   36 1
    22   12   13 ar
    23   13   14 ar
    24   13   37 1
    25   14   38 1
    26   15   16 1
    27   15   39 1
    28   15   40 1
    29   16   17 1
    30   16   41 1
    31   16   42 1
    32   17   18 am
    33   17   43 1
    34   18   19 2
    35   18   20 1
    36   20   25 ar
    37   20   21 ar
    38   21   22 ar
    39   21   44 1
    40   22   23 ar
    41   22   45 1
    42   23   29 1
    43   23   24 ar
    44   24   25 ar
    45   24   26 1
    46   25   46 1
    47   26   27 2
    48   27   28 1
    49   27   29 1
@<TRIPOS>MOLECULE
ZINC39621197
   47    49     0     0     0
SMALL
USER_CHARGES

@<TRIPOS>ATOM
      1 C1          3.5970   -1.2067    1.3145 C.3       1 <0>        -0.1604
      2 C2          3.4497   -2.5619    0.6720 C.2       1 <0>         0.1343
      3 N1          3.9712   -3.6075    1.2362 N.2       1 <0>        -0.2199
      4 N2          4.6711   -3.4766    2.4428 N.am      1 <0>        -0.5806
      5 C3          5.2128   -4.5627    3.0289 C.2       1 <0>         0.5597
      6 O1          5.0942   -5.6536    2.5117 O.2       1 <0>        -0.4777
      7 C4          5.9657   -4.4219    4.3267 C.3       1 <0>         0.0235
      8 H1          5.4520   -3.7226    4.9864 H         1 <0>         0.1461
      9 C5          7.3793   -3.9518    4.0637 C.2       1 <0>        -0.1543
     10 C6          8.1768   -4.9121    4.5285 C.2       1 <0>        -0.1699
     11 C7          7.3638   -5.9939    5.0858 C.2       1 <0>         0.1466
     12 N3          6.1021   -5.7301    4.9798 N.2       1 <0>        -0.4514
     13 C8          2.7128   -2.6997   -0.5982 C.ar      1 <0>         0.0059
     14 C9          2.1551   -1.5754   -1.2113 C.ar      1 <0>        -0.1113
     15 C10         1.4672   -1.7117   -2.3991 C.ar      1 <0>        -0.0128
     16 C11         1.3287   -2.9585   -2.9830 C.ar      1 <0>        -0.6591
     17 C12         1.8786   -4.0766   -2.3812 C.ar      1 <0>        -0.0222
     18 C13         2.5744   -3.9543   -1.1965 C.ar      1 <0>        -0.1031
     19 S1          0.4473   -3.1233   -4.4998 S.o2      1 <0>         2.6871
     20 O2         -0.1158   -4.4280   -4.5026 O.2       1 <0>        -0.9605
     21 O3         -0.3444   -1.9515   -4.6389 O.2       1 <0>        -0.9449
     22 N4          1.5645   -3.0874   -5.7217 N.pl3     1 <0>        -1.0520
     23 C14         2.2996   -1.9325   -5.9569 C.ar      1 <0>         0.0953
     24 C15         1.6962   -0.8384   -6.5725 C.ar      1 <0>        -0.1146
     25 C16         2.4158    0.2989   -6.8055 C.ar      1 <0>        -0.0815
     26 C17         3.7612    0.3640   -6.4248 C.ar      1 <0>        -0.1157
     27 C18         4.3640   -0.7375   -5.8064 C.ar      1 <0>        -0.0837
     28 C19         3.6366   -1.8694   -5.5715 C.ar      1 <0>        -0.1241
     29 C20         4.5399    1.5872   -6.6745 C.2       1 <0>         0.5169
     30 O4          4.0116    2.5490   -7.2155 O.co2     1 <0>        -0.6834
     31 O5          5.7158    1.6425   -6.3410 O.co2     1 <0>        -0.6857
     32 H2          4.5042   -0.7271    0.9471 H         1 <0>         0.0945
     33 H3          2.7334   -0.5904    1.0646 H         1 <0>         0.0952
     34 H4          3.6598   -1.3225    2.3965 H         1 <0>         0.0706
     35 H5          4.7659   -2.6044    2.8563 H         1 <0>         0.3884
     36 H6          7.6804   -3.0266    3.5949 H         1 <0>         0.1631
     37 H7          9.2562   -4.8949    4.4991 H         1 <0>         0.1517
     38 H8          7.7646   -6.8941    5.5280 H         1 <0>         0.1819
     39 H9          2.2618   -0.6017   -0.7563 H         1 <0>         0.1416
     40 H10         1.0354   -0.8433   -2.8743 H         1 <0>         0.1495
     41 H11         1.7663   -5.0467   -2.8423 H         1 <0>         0.1427
     42 H12         3.0072   -4.8271   -0.7304 H         1 <0>         0.1436
     43 H13         1.7056   -3.8729   -6.2730 H         1 <0>         0.4210
     44 H14         0.6582   -0.8895   -6.8663 H         1 <0>         0.1268
     45 H15         1.9474    1.1467   -7.2832 H         1 <0>         0.1337
     46 H16         5.4019   -0.6909   -5.5113 H         1 <0>         0.1307
     47 H17         4.0998   -2.7181   -5.0905 H         1 <0>         0.1188
@<TRIPOS>BOND
     1    1    2 1
     2    1   32 1
     3    1   33 1
     4    1   34 1
     5    2    3 2
     6    2   13 1
     7    3    4 1
     8    4    5 am
     9    4   35 1
    10    5    6 2
    11    5    7 1
    12    7    8 1
    13    7   12 1
    14    7    9 1
    15    9   10 2
    16    9   36 1
    17   10   11 1
    18   10   37 1
    19   11   12 2
    20   11   38 1
    21   13   18 ar
    22   13   14 ar
    23   14   15 ar
    24   14   39 1
    25   15   16 ar
    26   15   40 1
    27   16   17 ar
    28   16   19 1
    29   17   18 ar
    30   17   41 1
    31   18   42 1
    32   19   20 2
    33   19   21 2
    34   19   22 1
    35   22   23 1
    36   22   43 1
    37   23   28 ar
    38   23   24 ar
    39   24   25 ar
    40   24   44 1
    41   25   26 ar
    42   25   45 1
    43   26   27 ar
    44   26   29 1
    45   27   28 ar
    46   27   46 1
    47   28   47 1
    48   29   30 2
    49   29   31 1
@<TRIPOS>MOLECULE
ZINC51067546
   49    50     0     0     0
SMALL
USER_CHARGES

@<TRIPOS>ATOM
      1 C1          2.0568   -1.4893   -2.0382 C.3       1 <0>         0.0648
      2 N1          1.0268   -1.4342   -0.9979 N.am      1 <0>        -0.5421
      3 C2         -0.0920   -2.2087   -1.1217 C.2       1 <0>         0.4825
      4 C3         -1.0740   -2.1493   -0.1186 C.2       1 <0>        -0.3574
      5 C4         -0.8409   -1.2494    1.0179 C.2       1 <0>         0.5707
      6 O1         -1.6576   -1.1582    1.9159 O.2       1 <0>        -0.5014
      7 N2          0.2974   -0.5261    1.0466 N.am      1 <0>        -0.5609
      8 C5          1.2034   -0.6281    0.0606 C.2       1 <0>         0.7129
      9 O2          2.2184    0.0373    0.1269 O.2       1 <0>        -0.5552
     10 C6          0.5512    0.3784    2.1708 C.3       1 <0>         0.0840
     11 C7         -2.2500   -2.9312   -0.2012 C.2       1 <0>         0.4279
     12 O3         -3.4555   -2.3299   -0.2920 O.3       1 <0>        -0.5812
     13 C8         -2.1640   -4.3277   -0.1888 C.2       1 <0>        -0.4405
     14 C9         -0.9011   -4.9653    0.0335 C.1       1 <0>         0.3100
     15 N3          0.1007   -5.4710    0.2098 N.1       1 <0>        -0.5484
     16 C10        -3.3649   -5.1370   -0.4030 C.2       1 <0>         0.4332
     17 O4         -4.4406   -4.5939   -0.5924 O.2       1 <0>        -0.4899
     18 C11        -3.2748   -6.5981   -0.3901 C.2       1 <0>        -0.1942
     19 C12        -4.3823   -7.3445   -0.5876 C.2       1 <0>        -0.0681
     20 C13        -4.2919   -8.8111   -0.5746 C.ar      1 <0>        -0.1111
     21 C14        -3.0592   -9.4366   -0.3517 C.ar      1 <0>        -0.0586
     22 C15        -2.9794  -10.8053   -0.3399 C.ar      1 <0>        -0.1975
     23 C16        -4.1217  -11.5731   -0.5496 C.ar      1 <0>         0.2102
     24 C17        -5.3495  -10.9553   -0.7716 C.ar      1 <0>        -0.2001
     25 C18        -5.4393   -9.5871   -0.7793 C.ar      1 <0>        -0.0563
     26 N4         -4.0360  -12.9621   -0.5376 N.pl3     1 <0>        -0.6387
     27 C19        -2.7451  -13.6143   -0.3047 C.3       1 <0>         0.0930
     28 C20        -5.2367  -13.7719   -0.7581 C.3       1 <0>         0.0938
     29 N5         -0.2528   -3.0244   -2.1998 N.pl3     1 <0>        -0.8216
     30 H1          2.8736   -0.8166   -1.7768 H         1 <0>         0.1106
     31 H2          2.4367   -2.5077   -2.1198 H         1 <0>         0.0789
     32 H3          1.6264   -1.1846   -2.9922 H         1 <0>         0.0782
     33 H4         -0.2819    0.3291    2.8720 H         1 <0>         0.1006
     34 H5          1.4697    0.0807    2.6765 H         1 <0>         0.0725
     35 H6          0.6545    1.3983    1.8004 H         1 <0>         0.0731
     36 H7         -2.3224   -7.0790   -0.2224 H         1 <0>         0.1117
     37 H8         -5.3347   -6.8636   -0.7553 H         1 <0>         0.1277
     38 H9         -2.1724   -8.8417   -0.1896 H         1 <0>         0.1262
     39 H10        -2.0289  -11.2886   -0.1680 H         1 <0>         0.1208
     40 H11        -6.2332  -11.5546   -0.9338 H         1 <0>         0.1209
     41 H12        -6.3928   -9.1086   -0.9476 H         1 <0>         0.1249
     42 H13        -2.6088  -13.7788    0.7642 H         1 <0>         0.0470
     43 H14        -2.7225  -14.5717   -0.8254 H         1 <0>         0.0638
     44 H15        -1.9435  -12.9779   -0.6795 H         1 <0>         0.0698
     45 H16        -5.3507  -13.9701   -1.8238 H         1 <0>         0.0464
     46 H17        -5.1420  -14.7158   -0.2211 H         1 <0>         0.0636
     47 H18        -6.1109  -13.2325   -0.3933 H         1 <0>         0.0694
     48 H19         0.3953   -3.0082   -2.9213 H         1 <0>         0.4003
     49 H20        -1.0156   -3.6218   -2.2465 H         1 <0>         0.4337
@<TRIPOS>BOND
     1    1    2 1
     2    1   30 1
     3    1   31 1
     4    1   32 1
     5    2    8 am
     6    2    3 1
     7    3    4 2
     8    3   29 1
     9    4    5 1
    10    4   11 1
    11    5    6 2
    12    5    7 am
    13    7    8 am
    14    7   10 1
    15    8    9 2
    16   10   33 1
    17   10   34 1
    18   10   35 1
    19   11   12 1
    20   11   13 2
    21   13   14 1
    22   13   16 1
    23   14   15 3
    24   16   17 2
    25   16   18 1
    26   18   19 2
    27   18   36 1
    28   19   20 1
    29   19   37 1
    30   20   25 ar
    31   20   21 ar
    32   21   22 ar
    33   21   38 1
    34   22   23 ar
    35   22   39 1
    36   23   24 ar
    37   23   26 1
    38   24   25 ar
    39   24   40 1
    40   25   41 1
    41   26   27 1
    42   26   28 1
    43   27   42 1
    44   27   43 1
    45   27   44 1
    46   28   45 1
    47   28   46 1
    48   28   47 1
    49   29   48 1
    50   29   49 1
@<TRIPOS>MOLECULE
ZINC09359923
   47    49     0     0     0
SMALL
USER_CHARGES

@<TRIPOS>ATOM
      1 C1         -0.0998    1.5023    0.0139 C.3       1 <0>        -0.1360
      2 C2          0.0047   -0.0237   -0.0227 C.3       1 <0>        -0.1264
      3 C3          0.7187   -0.5081    1.2128 C.2       1 <0>         0.3161
      4 C4          0.0076   -0.7302    2.3825 C.2       1 <0>        -0.3976
      5 C5          0.6857   -1.0777    3.6385 C.2       1 <0>         0.5137
      6 O1          2.0296   -1.1908    3.6890 O.3       1 <0>        -0.6574
      7 N1         -0.0511   -1.2770    4.7193 N.2       1 <0>        -0.6656
      8 C6         -1.3768   -1.1719    4.6988 C.2       1 <0>         0.6704
      9 O2         -1.9865   -1.3698    5.7350 O.2       1 <0>        -0.5732
     10 N2         -2.0789   -0.8596    3.5998 N.am      1 <0>        -0.5468
     11 C7         -1.4617   -0.6222    2.4225 C.2       1 <0>         0.5877
     12 O3         -2.0982   -0.3332    1.4261 O.2       1 <0>        -0.5419
     13 C8         -3.4753   -0.7720    3.6758 C.ar      1 <0>         0.1599
     14 C9         -4.0807    0.4394    3.9830 C.ar      1 <0>        -0.0993
     15 C10        -5.4572    0.5227    4.0568 C.ar      1 <0>        -0.1212
     16 C11        -6.2327   -0.5987    3.8250 C.ar      1 <0>        -0.1206
     17 C12        -5.6328   -1.8063    3.5193 C.ar      1 <0>        -0.1175
     18 C13        -4.2566   -1.8947    3.4385 C.ar      1 <0>        -0.0687
     19 C14        -3.6039   -3.2099    3.0991 C.3       1 <0>        -0.1099
     20 N3          2.0468   -0.7253    1.1810 N.pl3     1 <0>        -0.4505
     21 N4          2.7854   -0.3832    0.0407 N.am      1 <0>        -0.5318
     22 C15         4.1274   -0.5079    0.0446 C.2       1 <0>         0.5528
     23 O4          4.6889   -1.0021    1.0022 O.2       1 <0>        -0.5013
     24 C16         4.9180   -0.0422   -1.1185 C.ar      1 <0>        -0.0734
     25 C17         4.3061    0.6318   -2.1797 C.ar      1 <0>        -0.1448
     26 C18         5.0813    1.0484   -3.2446 C.ar      1 <0>         0.0999
     27 N5          6.3789    0.8178   -3.2683 N.ar      1 <0>        -0.4690
     28 C19         6.9950    0.1862   -2.2890 C.ar      1 <0>         0.1001
     29 C20         6.2977   -0.2595   -1.1829 C.ar      1 <0>        -0.1107
     30 H1          0.9004    1.9342    0.0484 H         1 <0>         0.0471
     31 H2         -0.6163    1.8527   -0.8797 H         1 <0>         0.0672
     32 H3         -0.6579    1.8071    0.8992 H         1 <0>         0.0686
     33 H4         -0.9955   -0.4556   -0.0572 H         1 <0>         0.1408
     34 H5          0.5627   -0.3285   -0.9080 H         1 <0>         0.0620
     35 H6         -3.4757    1.3154    4.1645 H         1 <0>         0.1190
     36 H7         -5.9286    1.4645    4.2960 H         1 <0>         0.1217
     37 H8         -7.3090   -0.5311    3.8832 H         1 <0>         0.1200
     38 H9         -6.2410   -2.6805    3.3395 H         1 <0>         0.1219
     39 H10        -3.4074   -3.7653    4.0161 H         1 <0>         0.0729
     40 H11        -4.2675   -3.7901    2.4580 H         1 <0>         0.0645
     41 H12        -2.6646   -3.0255    2.5777 H         1 <0>         0.0609
     42 H13         2.4924   -1.1186    1.9475 H         1 <0>         0.4542
     43 H14         2.3310   -0.0567   -0.7516 H         1 <0>         0.4188
     44 H15         3.2433    0.8235   -2.1673 H         1 <0>         0.1391
     45 H16         4.6178    1.5698   -4.0691 H         1 <0>         0.1649
     46 H17         8.0602    0.0185   -2.3503 H         1 <0>         0.1666
     47 H18         6.8097   -0.7722   -0.3820 H         1 <0>         0.1527
@<TRIPOS>BOND
     1    1    2 1
     2    1   30 1
     3    1   31 1
     4    1   32 1
     5    2    3 1
     6    2   33 1
     7    2   34 1
     8    3    4 2
     9    3   20 1
    10    4   11 1
    11    4    5 1
    12    5    6 1
    13    5    7 2
    14    7    8 1
    15    8    9 2
    16    8   10 am
    17   10   11 am
    18   10   13 1
    19   11   12 2
    20   13   18 ar
    21   13   14 ar
    22   14   15 ar
    23   14   35 1
    24   15   16 ar
    25   15   36 1
    26   16   17 ar
    27   16   37 1
    28   17   18 ar
    29   17   38 1
    30   18   19 1
    31   19   39 1
    32   19   40 1
    33   19   41 1
    34   20   21 1
    35   20   42 1
    36   21   22 am
    37   21   43 1
    38   22   23 2
    39   22   24 1
    40   24   29 ar
    41   24   25 ar
    42   25   26 ar
    43   25   44 1
    44   26   27 ar
    45   26   45 1
    46   27   28 ar
    47   28   29 ar
    48   28   46 1
    49   29   47 1
@<TRIPOS>MOLECULE
ZINC13052114
   59    61     0     0     0
SMALL
USER_CHARGES
2-[2-[[(1S)-1-(4-ethylphenyl)ethyl]amino]-2-oxo-ethyl]sulfanyl-3-[(2R)-2-hydroxypropyl]-4-oxo-quinazoline-7-carboxylic acid
@<TRIPOS>ATOM
      1 C1         10.3348    9.2302    5.5322 C.3       1 <0>        -0.1467
      2 C2         10.1883    7.8720    4.8434 C.3       1 <0>        -0.0878
      3 C3          8.7637    7.6919    4.3857 C.ar      1 <0>        -0.0794
      4 C4          8.3844    8.1128    3.1249 C.ar      1 <0>        -0.1147
      5 C5          7.0776    7.9481    2.7053 C.ar      1 <0>        -0.1035
      6 C6          6.1502    7.3625    3.5466 C.ar      1 <0>        -0.0989
      7 C7          6.5283    6.9463    4.8094 C.ar      1 <0>        -0.1091
      8 C8          7.8363    7.1063    5.2270 C.ar      1 <0>        -0.1119
      9 C9          4.7254    7.1833    3.0893 C.3       1 <0>         0.1864
     10 H1          4.6845    7.2301    2.0011 H         1 <0>         0.0985
     11 C10         3.8564    8.2951    3.6806 C.3       1 <0>        -0.1589
     12 N1          4.2276    5.8817    3.5412 N.am      1 <0>        -0.7183
     13 C11         3.2251    5.2753    2.8749 C.2       1 <0>         0.5379
     14 O1          2.7352    5.8072    1.9013 O.2       1 <0>        -0.5274
     15 C12         2.7130    3.9364    3.3398 C.3       1 <0>        -0.1487
     16 S1          1.3772    3.3892    2.2479 S.3       1 <0>         0.0541
     17 C13         0.9786    1.8470    3.0012 C.2       1 <0>         0.3485
     18 N2          1.6542    1.4763    4.0607 N.2       1 <0>        -0.5145
     19 C14         1.4000    0.3045    4.6892 C.ar      1 <0>         0.1405
     20 C15         2.1218   -0.0886    5.8198 C.ar      1 <0>        -0.0740
     21 C16         1.8254   -1.2999    6.4319 C.ar      1 <0>        -0.0664
     22 C17         0.8122   -2.1235    5.9241 C.ar      1 <0>        -0.0877
     23 C18         0.1009   -1.7501    4.8201 C.ar      1 <0>        -0.0628
     24 C19         0.3816   -0.5383    4.1898 C.ar      1 <0>        -0.1960
     25 C20        -0.3647   -0.0942    3.0017 C.2       1 <0>         0.5580
     26 O2         -1.2566   -0.7728    2.5270 O.2       1 <0>        -0.5174
     27 N3         -0.0203    1.0939    2.4537 N.am      1 <0>        -0.5228
     28 C21        -0.7288    1.5792    1.2668 C.3       1 <0>         0.0570
     29 C22        -0.0127    1.0858    0.0080 C.3       1 <0>         0.0858
     30 H2          0.0021   -0.0041    0.0020 H         1 <0>         0.1065
     31 C23        -0.7527    1.5927   -1.2315 C.3       1 <0>        -0.1813
     32 O3          1.3279    1.5804   -0.0021 O.3       1 <0>        -0.5512
     33 C24         2.5849   -1.7231    7.6290 C.2       1 <0>         0.4882
     34 O4          3.4638   -1.0124    8.0731 O.co2     1 <0>        -0.6219
     35 H3         10.0756   10.0232    4.8308 H         1 <0>         0.0550
     36 H4          9.6682    9.2747    6.3935 H         1 <0>         0.0561
     37 H5         11.3652    9.3604    5.8632 H         1 <0>         0.0580
     38 H6         10.4475    7.0790    5.5448 H         1 <0>         0.0732
     39 H7         10.8549    7.8275    3.9821 H         1 <0>         0.0717
     40 H8          9.1089    8.5707    2.4677 H         1 <0>         0.1226
     41 H9          6.7812    8.2773    1.7203 H         1 <0>         0.1242
     42 H10         5.8027    6.4928    5.4683 H         1 <0>         0.1227
     43 H11         8.1326    6.7778    6.2123 H         1 <0>         0.1244
     44 H12         3.8973    8.2483    4.7688 H         1 <0>         0.0604
     45 H13         4.2268    9.2635    3.3444 H         1 <0>         0.0681
     46 H14         2.8259    8.1655    3.3499 H         1 <0>         0.0665
     47 H15         4.6194    5.4563    4.3199 H         1 <0>         0.4054
     48 H16         2.3360    4.0254    4.3587 H         1 <0>         0.1314
     49 H17         3.5240    3.2086    3.3147 H         1 <0>         0.1329
     50 H18         2.9031    0.5442    6.2144 H         1 <0>         0.1441
     51 H19         0.5920   -3.0625    6.4101 H         1 <0>         0.1430
     52 H20        -0.6783   -2.3918    4.4361 H         1 <0>         0.1335
     53 H21        -0.7436    2.6691    1.2728 H         1 <0>         0.0981
     54 H22        -1.7514    1.2020    1.2746 H         1 <0>         0.1126
     55 H23        -0.2425    1.2411   -2.1283 H         1 <0>         0.0717
     56 H24        -1.7753    1.2154   -1.2238 H         1 <0>         0.0703
     57 H25        -0.7675    2.6825   -1.2255 H         1 <0>         0.0634
     58 H26         1.3912    2.5454    0.0024 H         1 <0>         0.3745
     59 O5          2.3015   -2.8966    8.2262 O.co2     1 <0>        -0.7438
@<TRIPOS>BOND
     1    1    2 1
     2    1   35 1
     3    1   36 1
     4    1   37 1
     5    2    3 1
     6    2   38 1
     7    2   39 1
     8    3    8 ar
     9    3    4 ar
    10    4    5 ar
    11    4   40 1
    12    5    6 ar
    13    5   41 1
    14    6    7 ar
    15    6    9 1
    16    7    8 ar
    17    7   42 1
    18    8   43 1
    19    9   10 1
    20    9   11 1
    21    9   12 1
    22   11   44 1
    23   11   45 1
    24   11   46 1
    25   12   13 am
    26   12   47 1
    27   13   14 2
    28   13   15 1
    29   15   16 1
    30   15   48 1
    31   15   49 1
    32   16   17 1
    33   17   27 1
    34   17   18 2
    35   18   19 1
    36   19   24 ar
    37   19   20 ar
    38   20   21 ar
    39   20   50 1
    40   21   22 ar
    41   21   33 1
    42   22   23 ar
    43   22   51 1
    44   23   24 ar
    45   23   52 1
    46   24   25 1
    47   25   26 2
    48   25   27 am
    49   27   28 1
    50   28   29 1
    51   28   53 1
    52   28   54 1
    53   29   30 1
    54   29   31 1
    55   29   32 1
    56   31   55 1
    57   31   56 1
    58   31   57 1
    59   32   58 1
    60   33   34 2
    61   33   59 1
@<TRIPOS>MOLECULE
ZINC20849099
   53    55     0     0     0
SMALL
USER_CHARGES
N-(4-ethoxyphenyl)-5-[(4-isopropylphenyl)sulfamoyl]-1H-pyrazole-3-carboxamide
@<TRIPOS>ATOM
      1 C1         -9.4313   -2.7845    2.2825 C.3       1 <0>        -0.1546
      2 C2         -8.2395   -1.8771    1.9712 C.3       1 <0>         0.0524
      3 O1         -7.0367   -2.4951    2.4335 O.3       1 <0>        -0.3164
      4 C3         -5.8767   -1.8148    2.2332 C.ar      1 <0>         0.1144
      5 C4         -4.6726   -2.3575    2.6576 C.ar      1 <0>        -0.1315
      6 C5         -3.4941   -1.6669    2.4549 C.ar      1 <0>        -0.0795
      7 C6         -3.5144   -0.4292    1.8256 C.ar      1 <0>         0.1165
      8 C7         -4.7207    0.1155    1.4054 C.ar      1 <0>        -0.1046
      9 C8         -5.8978   -0.5785    1.6041 C.ar      1 <0>        -0.1910
     10 N1         -2.3198    0.2720    1.6202 N.am      1 <0>        -0.6859
     11 C9         -1.1850   -0.3982    1.3378 C.2       1 <0>         0.5999
     12 O2         -1.1793   -1.6141    1.3450 O.2       1 <0>        -0.5047
     13 C10         0.0514    0.3441    1.0195 C.2       1 <0>        -0.0930
     14 C11         1.3122   -0.2157    0.7040 C.2       1 <0>        -0.0692
     15 C12         2.1326    0.8392    0.4882 C.2       1 <0>        -0.5027
     16 N2          1.3996    1.9591    0.6671 N.2       1 <0>        -0.1849
     17 H1         -0.6688    2.3061    1.1917 H         1 <0>         0.4660
     18 N3          0.1907    1.6542    0.9766 N.pl3     1 <0>        -0.3344
     19 S1          3.8388    0.7647    0.0547 S.o2      1 <0>         2.6027
     20 O3          4.0230   -0.4479   -0.6629 O.2       1 <0>        -0.9918
     21 O4          4.1744    2.0324   -0.4927 O.2       1 <0>        -1.0261
     22 N4          4.6959    0.6157    1.4637 N.2       1 <0>        -1.0603
     23 C13         4.6555    1.6358    2.4169 C.ar      1 <0>         0.2253
     24 C14         4.7957    2.9610    2.0247 C.ar      1 <0>        -0.2021
     25 C15         4.7505    3.9675    2.9693 C.ar      1 <0>        -0.0900
     26 C16         4.5764    3.6566    4.3055 C.ar      1 <0>        -0.1529
     27 C17         4.4419    2.3381    4.7000 C.ar      1 <0>        -0.1030
     28 C18         4.4809    1.3270    3.7600 C.ar      1 <0>        -0.1588
     29 C19         4.5329    4.7572    5.3339 C.3       1 <0>        -0.0437
     30 C20         5.8494    5.5362    5.3034 C.3       1 <0>        -0.1416
     31 C21         3.3728    5.7039    5.0191 C.3       1 <0>        -0.1408
     32 H2        -10.3571   -2.3088    1.9266 H         1 <0>         0.0782
     33 H3         -9.4958   -2.9453    3.3688 H         1 <0>         0.0668
     34 H4         -9.2979   -3.7518    1.7760 H         1 <0>         0.0670
     35 H5         -8.1750   -1.7164    0.8849 H         1 <0>         0.0618
     36 H6         -8.3728   -0.9098    2.4777 H         1 <0>         0.0617
     37 H7         -4.6570   -3.3201    3.1469 H         1 <0>         0.1348
     38 H8         -2.5568   -2.0894    2.7853 H         1 <0>         0.1479
     39 H9         -4.7377    1.0801    0.9199 H         1 <0>         0.1282
     40 H10        -6.8355   -0.1570    1.2733 H         1 <0>         0.1303
     41 H11        -2.3074    1.3697    1.6892 H         1 <0>         0.4221
     42 H12         1.5663   -1.2638    0.6473 H         1 <0>         0.1682
     43 H13         4.9361    3.2042    0.9819 H         1 <0>         0.1389
     44 H14         4.8553    4.9983    2.6645 H         1 <0>         0.1002
     45 H15         4.3057    2.0987    5.7443 H         1 <0>         0.1002
     46 H16         4.3753    0.2975    4.0687 H         1 <0>         0.1087
     47 H17         4.3885    4.3055    6.3264 H         1 <0>         0.0647
     48 H18         5.8175    6.3396    6.0541 H         1 <0>         0.0460
     49 H19         5.9937    5.9734    4.3044 H         1 <0>         0.0550
     50 H20         6.6834    4.8557    5.5298 H         1 <0>         0.0536
     51 H21         3.3411    6.5073    5.7698 H         1 <0>         0.0460
     52 H22         2.4263    5.1439    5.0411 H         1 <0>         0.0508
     53 H23         3.5171    6.1411    4.0201 H         1 <0>         0.0550
@<TRIPOS>BOND
     1    1    2 1
     2    1   32 1
     3    1   33 1
     4    1   34 1
     5    2    3 1
     6    2   35 1
     7    2   36 1
     8    3    4 1
     9    4    9 ar
    10    4    5 ar
    11    5    6 ar
    12    5   37 1
    13    6    7 ar
    14    6   38 1
    15    7    8 ar
    16    7   10 1
    17    8    9 ar
    18    8   39 1
    19    9   40 1
    20   10   11 am
    21   10   41 1
    22   11   12 2
    23   11   13 1
    24   13   14 2
    25   13   18 1
    26   14   42 1
    27   14   15 1
    28   15   19 1
    29   15   16 2
    30   16   18 1
    31   17   18 1
    32   19   20 2
    33   19   21 2
    34   19   22 1
    35   22   23 1
    36   23   28 ar
    37   23   24 ar
    38   24   25 ar
    39   24   43 1
    40   25   26 ar
    41   25   44 1
    42   26   27 ar
    43   26   29 1
    44   27   28 ar
    45   27   45 1
    46   28   46 1
    47   29   30 1
    48   29   31 1
    49   29   47 1
    50   30   48 1
    51   30   49 1
    52   30   50 1
    53   31   51 1
    54   31   52 1
    55   31   53 1
@<TRIPOS>MOLECULE
ZINC32602896
   58    61     0     0     0
SMALL
USER_CHARGES

@<TRIPOS>ATOM
      1 C1          3.0737   -1.0301  -12.4739 C.3       1 <0>         0.0866
      2 N1          3.2117   -0.5218  -11.1069 N.pl3     1 <0>        -0.6212
      3 C2          4.1452    0.5708  -10.8224 C.3       1 <0>         0.0819
      4 C3          2.4561   -1.0769  -10.0785 C.ar      1 <0>         0.2544
      5 C4          2.5846   -0.5886   -8.7809 C.ar      1 <0>        -0.1932
      6 C5          1.8419   -1.1327   -7.7649 C.ar      1 <0>        -0.0445
      7 C6          0.9534   -2.1808   -8.0336 C.ar      1 <0>        -0.0899
      8 C7          0.8272   -2.6689   -9.3397 C.ar      1 <0>        -0.0022
      9 C8          1.5694   -2.1153  -10.3511 C.ar      1 <0>        -0.2137
     10 N2          0.2138   -2.7247   -7.0264 N.2       1 <0>        -0.1296
     11 N3          0.0776   -2.0907   -5.9113 N.2       1 <0>        -0.1889
     12 C9          0.0645   -0.7245   -5.8993 C.ar      1 <0>         0.0175
     13 C10         0.2820   -0.0332   -4.7031 C.ar      1 <0>        -0.0829
     14 C11         0.2692    1.3378   -4.6919 C.ar      1 <0>        -0.0620
     15 C12         0.0388    2.0444   -5.8753 C.ar      1 <0>        -0.0960
     16 C13        -0.1791    1.3544   -7.0707 C.ar      1 <0>        -0.0797
     17 C14        -0.1608   -0.0166   -7.0844 C.ar      1 <0>        -0.1340
     18 C15         0.0251    3.5218   -5.8624 C.2       1 <0>         0.5525
     19 O1          0.2143    4.1224   -4.8225 O.2       1 <0>        -0.5402
     20 N4         -0.1970    4.2036   -7.0036 N.am      1 <0>        -0.6799
     21 C16        -0.2106    5.6685   -6.9908 C.3       1 <0>         0.0847
     22 H1         -0.6375    6.0197   -6.0514 H         1 <0>         0.0849
     23 C17        -1.0563    6.1809   -8.1584 C.3       1 <0>        -0.0401
     24 C18        -2.4915    5.7671   -7.9587 C.2       1 <0>        -0.1448
     25 C19        -3.0857    4.6752   -8.4653 C.2       1 <0>         0.0371
     26 N5         -4.3949    4.6306   -8.0701 N.pl3     1 <0>        -0.5976
     27 H2         -5.0263    3.9348   -8.3111 H         1 <0>         0.4114
     28 C20        -4.6826    5.7205   -7.2794 C.ar      1 <0>         0.0968
     29 C21        -3.5013    6.4769   -7.1697 C.ar      1 <0>        -0.0995
     30 C22        -3.4930    7.6498   -6.4129 C.ar      1 <0>        -0.0603
     31 C23        -4.6333    8.0559   -5.7785 C.ar      1 <0>        -0.1535
     32 C24        -5.8000    7.3112   -5.8802 C.ar      1 <0>        -0.1002
     33 C25        -5.8329    6.1553   -6.6296 C.ar      1 <0>        -0.1388
     34 C26         1.1985    6.1851   -7.1265 C.2       1 <0>         0.4920
     35 O2          2.1045    5.4187   -7.4065 O.co2     1 <0>        -0.6873
     36 O3          1.4327    7.3695   -6.9563 O.co2     1 <0>        -0.6944
     37 H3          3.7854   -1.8400  -12.6340 H         1 <0>         0.0534
     38 H4          2.0601   -1.4024  -12.6225 H         1 <0>         0.0724
     39 H5          3.2729   -0.2260  -13.1823 H         1 <0>         0.0716
     40 H6          3.6308    1.5257  -10.9307 H         1 <0>         0.0613
     41 H7          4.5191    0.4732   -9.8031 H         1 <0>         0.0748
     42 H8          4.9803    0.5266  -11.5215 H         1 <0>         0.0713
     43 H9          3.2705    0.2197   -8.5744 H         1 <0>         0.1346
     44 H10         1.9424   -0.7536   -6.7586 H         1 <0>         0.1321
     45 H11         0.1430   -3.4772   -9.5511 H         1 <0>         0.1359
     46 H12         1.4692   -2.4881  -11.3597 H         1 <0>         0.1323
     47 H13         0.4598   -0.5792   -3.7884 H         1 <0>         0.1402
     48 H14         0.4368    1.8718   -3.7682 H         1 <0>         0.1446
     49 H15        -0.3574    1.9011   -7.9848 H         1 <0>         0.1278
     50 H16        -0.3248   -0.5498   -8.0092 H         1 <0>         0.1339
     51 H17        -0.3480    3.7244   -7.8333 H         1 <0>         0.3859
     52 H18        -0.9943    7.2682   -8.2022 H         1 <0>         0.0903
     53 H19        -0.6826    5.7578   -9.0909 H         1 <0>         0.0682
     54 H20        -2.6020    3.9408   -9.0923 H         1 <0>         0.1633
     55 H21        -2.5886    8.2341   -6.3286 H         1 <0>         0.1263
     56 H22        -4.6265    8.9635   -5.1931 H         1 <0>         0.1200
     57 H23        -6.6931    7.6447   -5.3726 H         1 <0>         0.1204
     58 H24        -6.7454    5.5820   -6.7016 H         1 <0>         0.1144
@<TRIPOS>BOND
     1    1    2 1
     2    1   37 1
     3    1   38 1
     4    1   39 1
     5    2    3 1
     6    2    4 1
     7    3   40 1
     8    3   41 1
     9    3   42 1
    10    4    9 ar
    11    4    5 ar
    12    5    6 ar
    13    5   43 1
    14    6    7 ar
    15    6   44 1
    16    7    8 ar
    17    7   10 1
    18    8    9 ar
    19    8   45 1
    20    9   46 1
    21   10   11 2
    22   11   12 1
    23   12   17 ar
    24   12   13 ar
    25   13   14 ar
    26   13   47 1
    27   14   15 ar
    28   14   48 1
    29   15   16 ar
    30   15   18 1
    31   16   17 ar
    32   16   49 1
    33   17   50 1
    34   18   19 2
    35   18   20 am
    36   20   21 1
    37   20   51 1
    38   21   22 1
    39   21   23 1
    40   21   34 1
    41   23   24 1
    42   23   52 1
    43   23   53 1
    44   24   29 1
    45   24   25 2
    46   25   26 1
    47   25   54 1
    48   26   27 1
    49   26   28 1
    50   28   33 ar
    51   28   29 ar
    52   29   30 ar
    53   30   31 ar
    54   30   55 1
    55   31   32 ar
    56   31   56 1
    57   32   33 ar
    58   32   57 1
    59   33   58 1
    60   34   35 2
    61   34   36 1
@<TRIPOS>MOLECULE
ZINC44320783
   46    49     0     0     0
SMALL
USER_CHARGES

@<TRIPOS>ATOM
      1 C1         -0.0166    1.3750    0.0096 C.ar      1 <0>        -0.1178
      2 C2          1.1687    2.0883    0.0021 C.ar      1 <0>        -0.1140
      3 C3          2.3801    1.4204   -0.0135 C.ar      1 <0>        -0.0937
      4 C4          2.4083    0.0417   -0.0212 C.ar      1 <0>        -0.0827
      5 C5          1.2210   -0.6848   -0.0133 C.ar      1 <0>        -0.0484
      6 C6          0.0021   -0.0041    0.0020 C.ar      1 <0>        -0.0992
      7 C7          1.5297   -2.1362   -0.0247 C.ar      1 <0>        -0.0616
      8 C8          0.6935   -3.2543   -0.0227 C.ar      1 <0>        -0.0995
      9 C9          1.2378   -4.5215   -0.0354 C.ar      1 <0>        -0.1210
     10 C10         2.6107   -4.6904   -0.0503 C.ar      1 <0>        -0.1116
     11 C11         3.4454   -3.5871   -0.0524 C.ar      1 <0>        -0.0838
     12 C12         2.9100   -2.3164   -0.0397 C.ar      1 <0>        -0.0773
     13 C13         3.5470   -0.9484   -0.0383 C.3       1 <0>        -0.0103
     14 C14         4.4161   -0.7733    1.2086 C.3       1 <0>         0.1073
     15 O1          5.5525   -1.6353    1.1221 O.3       1 <0>        -0.3648
     16 C15         6.4241   -1.6025    2.1477 C.2       1 <0>         0.6483
     17 O2          6.2253   -0.8622    3.0906 O.2       1 <0>        -0.5766
     18 N1          7.5171   -2.3908    2.1287 N.am      1 <0>        -0.6741
     19 C16         8.4655   -2.3552    3.2447 C.3       1 <0>         0.1004
     20 H1          7.9240   -2.1927    4.1766 H         1 <0>         0.0863
     21 C17         9.2179   -3.6855    3.3173 C.3       1 <0>        -0.0660
     22 C18         8.2508   -4.7920    3.6512 C.2       1 <0>         0.1501
     23 C19         7.4890   -5.4796    2.7684 C.2       1 <0>        -0.2471
     24 C20         6.7360   -6.4147    3.4869 C.2       1 <0>         0.0843
     25 N2          7.0349   -6.2930    4.7549 N.2       1 <0>        -0.2884
     26 N3          7.9931   -5.2792    4.8837 N.pl3     1 <0>        -0.4614
     27 H2          8.3984   -4.9790    5.7122 H         1 <0>         0.4453
     28 Br1         7.4488   -5.2212    0.8956 Br        1 <0>        -0.0147
     29 C21         9.4487   -1.2329    3.0328 C.2       1 <0>         0.4936
     30 O3          9.9438   -0.6668    3.9925 O.co2     1 <0>        -0.6864
     31 O4          9.7491   -0.8911    1.9017 O.co2     1 <0>        -0.6778
     32 H3         -0.9603    1.9001    0.0260 H         1 <0>         0.1255
     33 H4          1.1483    3.1681    0.0081 H         1 <0>         0.1279
     34 H5          3.3044    1.9791   -0.0200 H         1 <0>         0.1286
     35 H6         -0.9256   -0.5570    0.0076 H         1 <0>         0.1221
     36 H7         -0.3789   -3.1269   -0.0107 H         1 <0>         0.1198
     37 H8          0.5895   -5.3854   -0.0335 H         1 <0>         0.1240
     38 H9          3.0316   -5.6850   -0.0598 H         1 <0>         0.1275
     39 H10         4.5170   -3.7211   -0.0640 H         1 <0>         0.1322
     40 H11         4.1482   -0.8134   -0.9375 H         1 <0>         0.1148
     41 H12         4.7498    0.2622    1.2764 H         1 <0>         0.0738
     42 H13         3.8348   -1.0264    2.0952 H         1 <0>         0.0680
     43 H14         7.6759   -2.9818    1.3760 H         1 <0>         0.4003
     44 H15         9.6867   -3.8907    2.3550 H         1 <0>         0.1047
     45 H16         9.9845   -3.6276    4.0900 H         1 <0>         0.1039
     46 H17         6.0297   -7.1158    3.0673 H         1 <0>         0.1895
@<TRIPOS>BOND
     1    1    6 ar
     2    1    2 ar
     3    1   32 1
     4    2    3 ar
     5    2   33 1
     6    3    4 ar
     7    3   34 1
     8    4   13 1
     9    4    5 ar
    10    5    6 ar
    11    5    7 1
    12    6   35 1
    13    7   12 ar
    14    7    8 ar
    15    8    9 ar
    16    8   36 1
    17    9   10 ar
    18    9   37 1
    19   10   11 ar
    20   10   38 1
    21   11   12 ar
    22   11   39 1
    23   12   13 1
    24   13   14 1
    25   13   40 1
    26   14   15 1
    27   14   41 1
    28   14   42 1
    29   15   16 1
    30   16   17 2
    31   16   18 am
    32   18   19 1
    33   18   43 1
    34   19   20 1
    35   19   21 1
    36   19   29 1
    37   21   22 1
    38   21   44 1
    39   21   45 1
    40   22   26 1
    41   22   23 2
    42   23   24 1
    43   23   28 1
    44   24   25 2
    45   24   46 1
    46   25   26 1
    47   26   27 1
    48   29   30 2
    49   29   31 1
@<TRIPOS>MOLECULE
ZINC12776052
   50    52     0     0     0
SMALL
USER_CHARGES

@<TRIPOS>ATOM
      1 C1         -1.1917    1.2307    0.1708 C.3       1 <0>        -0.1494
      2 C2         -0.9514   -0.2801    0.1459 C.3       1 <0>        -0.1139
      3 C3         -2.2928   -1.0114    0.2282 C.3       1 <0>        -0.0586
      4 C4         -2.0560   -2.4994    0.2037 C.ar      1 <0>         0.1787
      5 C5         -2.5573   -3.3033    1.2101 C.ar      1 <0>        -0.3292
      6 C6         -2.3157   -4.6754    1.1489 C.ar      1 <0>         0.4456
      7 O1         -2.7892   -5.5001    2.1144 O.3       1 <0>        -0.6991
      8 N1         -1.6161   -5.1623    0.1317 N.ar      1 <0>        -0.6147
      9 C7         -1.1518   -4.3588   -0.8148 C.ar      1 <0>         0.3290
     10 N2         -1.3701   -3.0520   -0.7854 N.ar      1 <0>        -0.5787
     11 S1         -0.2275   -5.0460   -2.1482 S.3       1 <0>        -0.0191
     12 C8         -0.1876   -6.8228   -1.7849 C.3       1 <0>        -0.0912
     13 C9          0.5838   -7.5389   -2.8634 C.2       1 <0>         0.2401
     14 C10         1.8378   -7.9702   -2.6082 C.2       1 <0>        -0.2473
     15 C11         2.5776   -8.6854   -3.7205 C.3       1 <0>         0.2946
     16 H1          3.4976   -8.1359   -3.9197 H         1 <0>         0.1089
     17 N3          1.8631   -8.8524   -4.9972 N.am      1 <0>        -0.7117
     18 C12         0.6104   -8.3660   -5.0997 C.2       1 <0>         0.7136
     19 O2          0.0121   -8.4988   -6.1494 O.2       1 <0>        -0.5608
     20 N4          0.0013   -7.7460   -4.0811 N.am      1 <0>        -0.6432
     21 C13         2.9585  -10.0547   -3.2195 C.2       1 <0>        -0.1738
     22 C14         4.1496  -10.4866   -2.7379 C.2       1 <0>        -0.1406
     23 C15         4.2706  -11.8018   -2.3299 C.2       1 <0>        -0.1572
     24 C16         3.1945  -12.6207   -2.4235 C.2       1 <0>        -0.1743
     25 S2          1.9558  -11.5269   -3.0991 S.3       1 <0>         0.0711
     26 C17         2.4404   -7.7610   -1.3456 C.2       1 <0>         0.5462
     27 O3          3.2426   -6.8584   -1.1964 O.2       1 <0>        -0.4846
     28 O4          2.1256   -8.5625   -0.3067 O.3       1 <0>        -0.3405
     29 C18         2.7720   -8.2938    0.9391 C.3       1 <0>         0.0598
     30 C19         2.2925   -9.2977    1.9895 C.3       1 <0>        -0.1516
     31 H2         -0.2361    1.7517    0.1122 H         1 <0>         0.0505
     32 H3         -1.8127    1.5139   -0.6791 H         1 <0>         0.0520
     33 H4         -1.6977    1.5029    1.0971 H         1 <0>         0.0502
     34 H5         -0.4454   -0.5523   -0.7804 H         1 <0>         0.0729
     35 H6         -0.3305   -0.5633    0.9958 H         1 <0>         0.0564
     36 H7         -2.7988   -0.7392    1.1545 H         1 <0>         0.0704
     37 H8         -2.9137   -0.7282   -0.6217 H         1 <0>         0.0735
     38 H9         -3.1231   -2.8782    2.0260 H         1 <0>         0.1144
     39 H10         0.2969   -6.9860   -0.8223 H         1 <0>         0.1202
     40 H11        -1.2062   -7.2092   -1.7491 H         1 <0>         0.1239
     41 H12         2.2841   -9.3017   -5.7468 H         1 <0>         0.4344
     42 H13        -0.9028   -7.4220   -4.2171 H         1 <0>         0.4337
     43 H14         4.9917   -9.8134   -2.6741 H         1 <0>         0.1328
     44 H15         5.2086  -12.1714   -1.9427 H         1 <0>         0.1329
     45 H16         3.1079  -13.6632   -2.1553 H         1 <0>         0.1846
     46 H17         3.8512   -8.3848    0.8155 H         1 <0>         0.0657
     47 H18         2.5275   -7.2827    1.2646 H         1 <0>         0.0708
     48 H19         2.7856   -9.0927    2.9397 H         1 <0>         0.0777
     49 H20         1.2134   -9.2067    2.1130 H         1 <0>         0.0714
     50 H21         2.5370  -10.3088    1.6639 H         1 <0>         0.0636
@<TRIPOS>BOND
     1    1    2 1
     2    1   31 1
     3    1   32 1
     4    1   33 1
     5    2    3 1
     6    2   34 1
     7    2   35 1
     8    3   36 1
     9    3   37 1
    10    3    4 1
    11    4    5 ar
    12    4   10 ar
    13    5    6 ar
    14    5   38 1
    15    6    8 ar
    16    6    7 1
    17    8    9 ar
    18    9   11 1
    19    9   10 ar
    20   11   12 1
    21   12   13 1
    22   12   39 1
    23   12   40 1
    24   13   20 1
    25   13   14 2
    26   14   15 1
    27   14   26 1
    28   15   16 1
    29   15   17 1
    30   15   21 1
    31   17   18 am
    32   17   41 1
    33   18   19 2
    34   18   20 am
    35   20   42 1
    36   21   25 1
    37   21   22 2
    38   22   23 1
    39   22   43 1
    40   23   24 2
    41   23   44 1
    42   24   25 1
    43   24   45 1
    44   26   27 2
    45   26   28 1
    46   28   29 1
    47   29   30 1
    48   29   46 1
    49   29   47 1
    50   30   48 1
    51   30   49 1
    52   30   50 1
@<TRIPOS>MOLECULE
ZINC02982758
   51    52     0     0     0
SMALL
USER_CHARGES
2-[2-(4-bromobenzoyl)amino-3-(2-chlorophenyl)-prop-2-enoyl]amino-4-methyl-pentanoic acid
@<TRIPOS>ATOM
      1 C1          6.7499    1.9353   -3.2887 C.3       1 <0>        -0.1471
      2 C2          6.6713    0.6221   -2.5076 C.3       1 <0>        -0.0972
      3 C3          7.6180   -0.4025   -3.1360 C.3       1 <0>        -0.1438
      4 C4          7.0787    0.8684   -1.0536 C.3       1 <0>        -0.1045
      5 C5          6.0600    1.7963   -0.3887 C.3       1 <0>         0.1031
      6 H1          5.9651    2.7108   -0.9743 H         1 <0>         0.0942
      7 C6          6.5250    2.1375    1.0036 C.2       1 <0>         0.4585
      8 O1          5.8408    1.8488    1.9567 O.co2     1 <0>        -0.6300
      9 N1          4.7601    1.1243   -0.3185 N.am      1 <0>        -0.6882
     10 H2          4.7146    0.1554   -0.3156 H         1 <0>         0.3887
     11 C7          3.6275    1.8523   -0.2579 C.2       1 <0>         0.5507
     12 O2          3.6846    3.0676   -0.2615 O.2       1 <0>        -0.5156
     13 C8          2.3233    1.1779   -0.1874 C.2       1 <0>         0.1154
     14 C9          2.2598   -0.1737   -0.1834 C.2       1 <0>        -0.1020
     15 C10         0.9557   -0.8484   -0.0992 C.ar      1 <0>        -0.0435
     16 C11        -0.1859   -0.2417   -0.6339 C.ar      1 <0>        -0.1057
     17 C12        -1.4039   -0.8822   -0.5544 C.ar      1 <0>        -0.1148
     18 C13        -1.5019   -2.1187    0.0606 C.ar      1 <0>        -0.1052
     19 C14        -0.3794   -2.7243    0.5964 C.ar      1 <0>        -0.1099
     20 C15         0.8488   -2.0984    0.5215 C.ar      1 <0>        -0.0227
     21 Cl1         2.2563   -2.8591    1.1954 Cl        1 <0>        -0.0555
     22 N2          1.1483    1.9332   -0.1246 N.am      1 <0>        -0.6637
     23 C16         0.8785    2.8409   -1.0836 C.2       1 <0>         0.5557
     24 O3          1.6991    3.0712   -1.9507 O.2       1 <0>        -0.4847
     25 C17        -0.4120    3.5606   -1.0778 C.ar      1 <0>        -0.1107
     26 C18        -1.3107    3.3796   -0.0247 C.ar      1 <0>        -0.0813
     27 C19        -2.5109    4.0589   -0.0219 C.ar      1 <0>        -0.0958
     28 C20        -2.8308    4.9095   -1.0667 C.ar      1 <0>        -0.0693
     29 C21        -1.9461    5.0888   -2.1169 C.ar      1 <0>        -0.0966
     30 C22        -0.7401    4.4199   -2.1281 C.ar      1 <0>        -0.0506
     31 Br1        -4.4823    5.8305   -1.0592 Br        1 <0>        -0.0454
     32 H3          7.7706    2.3164   -3.2570 H         1 <0>         0.0547
     33 H4          6.4596    1.7599   -4.3246 H         1 <0>         0.0468
     34 H5          6.0754    2.6652   -2.8411 H         1 <0>         0.0594
     35 H6          5.6506    0.2410   -2.5394 H         1 <0>         0.0654
     36 H7          7.5620   -1.3381   -2.5795 H         1 <0>         0.0512
     37 H8          7.3278   -0.5780   -4.1719 H         1 <0>         0.0490
     38 H9          8.6387   -0.0214   -3.1042 H         1 <0>         0.0542
     39 H10         8.0647    1.3321   -1.0261 H         1 <0>         0.0875
     40 H11         7.1086   -0.0810   -0.5188 H         1 <0>         0.0597
     41 H12         3.1668   -0.7570   -0.2420 H         1 <0>         0.1465
     42 H13        -0.1125    0.7247   -1.1104 H         1 <0>         0.1387
     43 H14        -2.2853   -0.4161   -0.9695 H         1 <0>         0.1298
     44 H15        -2.4600   -2.6132    0.1226 H         1 <0>         0.1314
     45 H16        -0.4642   -3.6888    1.0748 H         1 <0>         0.1349
     46 H17         0.5273    1.8038    0.6092 H         1 <0>         0.4090
     47 H18        -1.0646    2.7125    0.7882 H         1 <0>         0.1356
     48 H19        -3.2047    3.9237    0.7947 H         1 <0>         0.1405
     49 H20        -2.2009    5.7540   -2.9286 H         1 <0>         0.1413
     50 H21        -0.0508    4.5608   -2.9475 H         1 <0>         0.1484
     51 O4          7.6992    2.7620    1.1848 O.co2     1 <0>        -0.7662
@<TRIPOS>BOND
     1    1    2 1
     2    1   32 1
     3    1   33 1
     4    1   34 1
     5    2    3 1
     6    2    4 1
     7    2   35 1
     8    3   36 1
     9    3   37 1
    10    3   38 1
    11    4    5 1
    12    4   39 1
    13    4   40 1
    14    5    6 1
    15    5    7 1
    16    5    9 1
    17    7    8 2
    18    7   51 1
    19    9   10 1
    20    9   11 am
    21   11   12 2
    22   11   13 1
    23   13   14 2
    24   13   22 1
    25   14   15 1
    26   14   41 1
    27   15   20 ar
    28   15   16 ar
    29   16   17 ar
    30   16   42 1
    31   17   18 ar
    32   17   43 1
    33   18   19 ar
    34   18   44 1
    35   19   20 ar
    36   19   45 1
    37   20   21 1
    38   22   23 am
    39   22   46 1
    40   23   24 2
    41   23   25 1
    42   25   30 ar
    43   25   26 ar
    44   26   27 ar
    45   26   47 1
    46   27   28 ar
    47   27   48 1
    48   28   29 ar
    49   28   31 1
    50   29   30 ar
    51   29   49 1
    52   30   50 1
@<TRIPOS>MOLECULE
ZINC13052218
   63    66     0     0     0
SMALL
USER_CHARGES
3-[(2S)-2-hydroxypropyl]-4-oxo-2-[2-oxo-2-[[(1R)-1-tetralin-6-ylethyl]amino]ethyl]sulfanyl-quinazoline-7-carboxylic acid
@<TRIPOS>ATOM
      1 C1          0.0786    1.1786    2.5031 C.3       1 <0>        -0.1807
      2 C2         -0.7288    1.5792    1.2668 C.3       1 <0>         0.0844
      3 H1         -0.8222    2.6646    1.2299 H         1 <0>         0.0613
      4 C3         -0.0127    1.0858    0.0080 C.3       1 <0>         0.0988
      5 N1         -0.7213    1.5711   -1.1789 N.am      1 <0>        -0.5263
      6 C4         -0.3806    2.7618   -1.7236 C.2       1 <0>         0.5569
      7 O1          0.5071    3.4433   -1.2453 O.2       1 <0>        -0.5200
      8 C5         -1.1229    3.2031   -2.9152 C.ar      1 <0>        -0.2007
      9 C6         -0.8427    4.4153   -3.5450 C.ar      1 <0>        -0.0622
     10 C7         -1.5548    4.7895   -4.6481 C.ar      1 <0>        -0.0909
     11 C8         -2.5672    3.9653   -5.1568 C.ar      1 <0>        -0.0657
     12 C9         -2.8631    2.7536   -4.5453 C.ar      1 <0>        -0.0771
     13 C10        -2.1410    2.3602   -3.4150 C.ar      1 <0>         0.1448
     14 N2         -2.3952    1.1883   -2.7865 N.2       1 <0>        -0.5230
     15 C11        -1.7164    0.8155   -1.7297 C.2       1 <0>         0.3469
     16 S1         -2.1105   -0.7298   -0.9803 S.3       1 <0>         0.0995
     17 C12        -3.4423   -1.2797   -2.0757 C.3       1 <0>        -0.1609
     18 C13        -3.9502   -2.6215   -1.6145 C.2       1 <0>         0.5383
     19 O2         -3.4601   -3.1535   -0.6411 O.2       1 <0>        -0.5263
     20 N3         -4.9492   -3.2302   -2.2838 N.am      1 <0>        -0.7196
     21 C14        -5.4430   -4.5346   -1.8355 C.3       1 <0>         0.1871
     22 H2         -5.4038   -4.5835   -0.7473 H         1 <0>         0.0975
     23 C15        -4.5688   -5.6419   -2.4275 C.3       1 <0>        -0.1587
     24 C16        -6.8662   -4.7182   -2.2957 C.ar      1 <0>        -0.0942
     25 C17        -7.2477   -4.2965   -3.5560 C.ar      1 <0>        -0.1139
     26 C18        -8.5528   -4.4657   -3.9690 C.ar      1 <0>        -0.1137
     27 C19        -9.4881   -5.0567   -3.1290 C.ar      1 <0>        -0.0744
     28 C20        -9.1071   -5.4810   -1.8761 C.ar      1 <0>        -0.0730
     29 C21        -7.7915   -5.3125   -1.4632 C.ar      1 <0>        -0.1072
     30 C22       -10.0645   -6.1388   -0.9170 C.3       1 <0>        -0.0814
     31 C23       -11.5096   -5.8610   -1.3260 C.3       1 <0>        -0.1208
     32 C24       -11.6704   -6.2206   -2.8078 C.3       1 <0>        -0.1200
     33 C25       -10.8986   -5.1976   -3.6386 C.3       1 <0>        -0.0829
     34 C26        -3.3270    4.3889   -6.3536 C.2       1 <0>         0.4882
     35 O3         -4.2056    3.6781   -6.7980 O.co2     1 <0>        -0.6222
     36 O4         -2.0295    0.9914    1.3363 O.3       1 <0>        -0.5474
     37 H3          1.0707    1.6270    2.4501 H         1 <0>         0.0680
     38 H4         -0.4316    1.5301    3.3999 H         1 <0>         0.0643
     39 H5          0.1720    0.0932    2.5400 H         1 <0>         0.0688
     40 H6          0.0021   -0.0041    0.0020 H         1 <0>         0.1022
     41 H7          1.0099    1.4631    0.0003 H         1 <0>         0.1148
     42 H8         -0.0641    5.0575   -3.1603 H         1 <0>         0.1324
     43 H9         -1.3353    5.7290   -5.1335 H         1 <0>         0.1421
     44 H10        -3.6446    2.1211   -4.9397 H         1 <0>         0.1434
     45 H11        -4.2560   -0.5550   -2.0506 H         1 <0>         0.1298
     46 H12        -3.0632   -1.3652   -3.0941 H         1 <0>         0.1276
     47 H13        -5.3412   -2.8047   -3.0624 H         1 <0>         0.4048
     48 H14        -4.9362   -6.6124   -2.0940 H         1 <0>         0.0674
     49 H15        -4.6079   -5.5930   -3.5157 H         1 <0>         0.0603
     50 H16        -3.5393   -5.5091   -2.0947 H         1 <0>         0.0665
     51 H17        -6.5263   -3.8360   -4.2147 H         1 <0>         0.1225
     52 H18        -8.8499   -4.1362   -4.9537 H         1 <0>         0.1238
     53 H19        -7.4917   -5.6463   -0.4808 H         1 <0>         0.1225
     54 H20        -9.8912   -7.2149   -0.9176 H         1 <0>         0.0756
     55 H21        -9.8934   -5.7483    0.0861 H         1 <0>         0.0744
     56 H22       -12.1848   -6.4702   -0.7250 H         1 <0>         0.0672
     57 H23       -11.7369   -4.8054   -1.1770 H         1 <0>         0.0661
     58 H24       -11.2699   -7.2180   -2.9890 H         1 <0>         0.0650
     59 H25       -12.7256   -6.1939   -3.0795 H         1 <0>         0.0674
     60 H26       -11.4010   -4.2322   -3.5773 H         1 <0>         0.0769
     61 H27       -10.8741   -5.5239   -4.6784 H         1 <0>         0.0747
     62 H28        -2.5417    1.2602    2.1111 H         1 <0>         0.3753
     63 O5         -3.0441    5.5627   -6.9503 O.co2     1 <0>        -0.7445
@<TRIPOS>BOND
     1    1    2 1
     2    1   37 1
     3    1   38 1
     4    1   39 1
     5    2    3 1
     6    2    4 1
     7    2   36 1
     8    4    5 1
     9    4   40 1
    10    4   41 1
    11    5   15 1
    12    5    6 am
    13    6    7 2
    14    6    8 1
    15    8   13 ar
    16    8    9 ar
    17    9   10 ar
    18    9   42 1
    19   10   11 ar
    20   10   43 1
    21   11   12 ar
    22   11   34 1
    23   12   13 ar
    24   12   44 1
    25   13   14 1
    26   14   15 2
    27   15   16 1
    28   16   17 1
    29   17   18 1
    30   17   45 1
    31   17   46 1
    32   18   19 2
    33   18   20 am
    34   20   21 1
    35   20   47 1
    36   21   22 1
    37   21   23 1
    38   21   24 1
    39   23   48 1
    40   23   49 1
    41   23   50 1
    42   24   29 ar
    43   24   25 ar
    44   25   26 ar
    45   25   51 1
    46   26   27 ar
    47   26   52 1
    48   27   33 1
    49   27   28 ar
    50   28   29 ar
    51   28   30 1
    52   29   53 1
    53   30   31 1
    54   30   54 1
    55   30   55 1
    56   31   32 1
    57   31   56 1
    58   31   57 1
    59   32   33 1
    60   32   58 1
    61   32   59 1
    62   33   60 1
    63   33   61 1
    64   34   35 2
    65   34   63 1
    66   36   62 1
@<TRIPOS>MOLECULE
ZINC13361463
   55    57     0     0     0
SMALL
USER_CHARGES
4-[[4-[N-[(5-ethyl-4-methyl-thiophene-2-carbonyl)amino]-C-methyl-carbonimidoyl]phenyl]sulfonylamino]benzoic acid
@<TRIPOS>ATOM
      1 C1         11.0616    0.0759   -9.2459 C.3       1 <0>        -0.1494
      2 C2         11.4087   -0.3724   -7.8249 C.3       1 <0>        -0.0446
      3 C3         10.2293   -1.0921   -7.2230 C.2       1 <0>        -0.1411
      4 C4          9.9376   -2.4185   -7.2673 C.2       1 <0>        -0.1477
      5 C5          8.8017   -2.8760   -6.6471 C.2       1 <0>        -0.0516
      6 C6          8.0115   -1.9358   -6.0037 C.2       1 <0>        -0.2425
      7 S1          8.9126   -0.4272   -6.3121 S.3       1 <0>         0.1326
      8 C7          6.7594   -2.1297   -5.2677 C.2       1 <0>         0.6247
      9 O1          6.2818   -3.2445   -5.1622 O.2       1 <0>        -0.4871
     10 N1          6.1366   -1.0739   -4.7076 N.am      1 <0>        -0.5770
     11 N2          4.9394   -1.2594   -4.0039 N.2       1 <0>        -0.2169
     12 C8          4.3396   -0.2427   -3.4645 C.2       1 <0>         0.1344
     13 C9          4.9309    1.1373   -3.5951 C.3       1 <0>        -0.1620
     14 C10         3.0794   -0.4379   -2.7238 C.ar      1 <0>         0.0072
     15 C11         2.4308    0.6542   -2.1422 C.ar      1 <0>        -0.1110
     16 C12         1.2522    0.4642   -1.4513 C.ar      1 <0>        -0.0130
     17 C13         0.7123   -0.8043   -1.3335 C.ar      1 <0>        -0.6592
     18 C14         1.3492   -1.8906   -1.9069 C.ar      1 <0>        -0.0220
     19 C15         2.5284   -1.7156   -2.6007 C.ar      1 <0>        -0.1028
     20 S2         -0.7934   -1.0375   -0.4484 S.o2      1 <0>         2.6878
     21 O2         -0.7482   -2.3514    0.0908 O.2       1 <0>        -0.9601
     22 O3         -0.9689    0.1143    0.3651 O.2       1 <0>        -0.9449
     23 N3         -2.0215   -1.0238   -1.5593 N.pl3     1 <0>        -1.0533
     24 C16        -2.2773    0.1253   -2.2985 C.ar      1 <0>         0.1004
     25 C17        -2.9193    1.2069   -1.7013 C.ar      1 <0>        -0.1167
     26 C18        -3.1688    2.3436   -2.4262 C.ar      1 <0>        -0.0729
     27 C19        -2.7872    2.4120   -3.7699 C.ar      1 <0>        -0.0972
     28 C20        -2.1472    1.3218   -4.3682 C.ar      1 <0>        -0.0839
     29 C21        -1.8960    0.1900   -3.6361 C.ar      1 <0>        -0.1243
     30 C22        -3.0584    3.6303   -4.5537 C.2       1 <0>         0.4862
     31 O4         -2.7258    3.6884   -5.7210 O.co2     1 <0>        -0.6295
     32 C23        10.8507   -3.3762   -7.9885 C.3       1 <0>        -0.0968
     33 H1         10.8197   -0.7964   -9.8532 H         1 <0>         0.0606
     34 H2         10.2033    0.7470   -9.2157 H         1 <0>         0.0592
     35 H3         11.9146    0.5964   -9.6813 H         1 <0>         0.0669
     36 H4         11.6507    0.4998   -7.2176 H         1 <0>         0.0818
     37 H5         12.2671   -1.0436   -7.8551 H         1 <0>         0.0908
     38 H6          8.5350   -3.9225   -6.6600 H         1 <0>         0.1501
     39 H7          6.5172   -0.1857   -4.7916 H         1 <0>         0.3868
     40 H8          5.6056    1.3240   -2.7596 H         1 <0>         0.0926
     41 H9          5.4839    1.2085   -4.5316 H         1 <0>         0.0709
     42 H10         4.1308    1.8775   -3.5884 H         1 <0>         0.0983
     43 H11         2.8510    1.6449   -2.2337 H         1 <0>         0.1419
     44 H12         0.7474    1.3082   -1.0051 H         1 <0>         0.1496
     45 H13         0.9222   -2.8780   -1.8106 H         1 <0>         0.1429
     46 H14         3.0247   -2.5645   -3.0475 H         1 <0>         0.1445
     47 H15        -2.5623   -1.8177   -1.6942 H         1 <0>         0.4215
     48 H16        -3.2175    1.1519   -0.6647 H         1 <0>         0.1290
     49 H17        -3.6629    3.1839   -1.9611 H         1 <0>         0.1380
     50 H18        -1.8509    1.3715   -5.4056 H         1 <0>         0.1314
     51 H19        -1.4015   -0.6521   -4.0974 H         1 <0>         0.1211
     52 H20        10.5391   -3.4611   -9.0295 H         1 <0>         0.0707
     53 H21        11.8745   -3.0046   -7.9449 H         1 <0>         0.0681
     54 H22        10.7991   -4.3555   -7.5127 H         1 <0>         0.0677
     55 O5         -3.6751    4.6799   -3.9757 O.co2     1 <0>        -0.7502
@<TRIPOS>BOND
     1    1    2 1
     2    1   33 1
     3    1   34 1
     4    1   35 1
     5    2    3 1
     6    2   36 1
     7    2   37 1
     8    3    7 1
     9    3    4 2
    10    4    5 1
    11    4   32 1
    12    5    6 2
    13    5   38 1
    14    6    7 1
    15    6    8 1
    16    8    9 2
    17    8   10 am
    18   10   11 1
    19   10   39 1
    20   11   12 2
    21   12   13 1
    22   12   14 1
    23   13   40 1
    24   13   41 1
    25   13   42 1
    26   14   19 ar
    27   14   15 ar
    28   15   16 ar
    29   15   43 1
    30   16   17 ar
    31   16   44 1
    32   17   18 ar
    33   17   20 1
    34   18   19 ar
    35   18   45 1
    36   19   46 1
    37   20   21 2
    38   20   22 2
    39   20   23 1
    40   23   24 1
    41   23   47 1
    42   24   29 ar
    43   24   25 ar
    44   25   26 ar
    45   25   48 1
    46   26   27 ar
    47   26   49 1
    48   27   28 ar
    49   27   30 1
    50   28   29 ar
    51   28   50 1
    52   29   51 1
    53   30   31 2
    54   30   55 1
    55   32   52 1
    56   32   53 1
    57   32   54 1
@<TRIPOS>MOLECULE
ZINC39422252
   57    60     0     0     0
SMALL
USER_CHARGES

@<TRIPOS>ATOM
      1 C1         -1.0581    1.1982   -1.3065 C.3       1 <0>        -0.1491
      2 C2         -0.7902   -0.2760   -0.9971 C.3       1 <0>         0.0535
      3 O1         -2.0327   -0.9585   -0.8174 O.3       1 <0>        -0.3092
      4 C3         -1.9720   -2.2871   -0.5337 C.ar      1 <0>         0.0940
      5 C4         -0.7433   -2.9184   -0.4250 C.ar      1 <0>        -0.1708
      6 C5         -0.6833   -4.2690   -0.1361 C.ar      1 <0>        -0.0417
      7 C6         -1.8473   -4.9928    0.0446 C.ar      1 <0>        -0.0509
      8 C7         -3.0763   -4.3692   -0.0630 C.ar      1 <0>        -0.1772
      9 C8         -3.1434   -3.0144   -0.3462 C.ar      1 <0>         0.0877
     10 O2         -4.3516   -2.3982   -0.4464 O.3       1 <0>        -0.3019
     11 C9         -5.5115   -3.2072   -0.2417 C.3       1 <0>         0.1009
     12 C10        -6.7482   -2.3592   -0.3909 C.ar      1 <0>        -0.0981
     13 C11        -7.2806   -1.7144    0.7101 C.ar      1 <0>        -0.0650
     14 C12        -8.4144   -0.9361    0.5744 C.ar      1 <0>        -0.1574
     15 C13        -9.0173   -0.8021   -0.6648 C.ar      1 <0>         0.1031
     16 C14        -8.4832   -1.4483   -1.7668 C.ar      1 <0>        -0.1576
     17 C15        -7.3463   -2.2219   -1.6297 C.ar      1 <0>        -0.0653
     18 F1        -10.1260   -0.0418   -0.7986 F         1 <0>        -0.1404
     19 C16         0.6539   -4.9539   -0.0182 C.3       1 <0>         0.1276
     20 H1          1.4465   -4.2057   -0.0164 H         1 <0>         0.0673
     21 C17         0.7035   -5.7414    1.2657 C.2       1 <0>        -0.4186
     22 C18         0.1270   -5.3679    2.4836 C.2       1 <0>         0.1140
     23 N1          0.3810   -6.3037    3.3620 N.2       1 <0>        -0.3708
     24 N2          1.1292   -7.3071    2.7332 N.pl3     1 <0>        -0.5414
     25 C19         1.3118   -6.9440    1.4444 C.2       1 <0>         0.4147
     26 O3          1.9832   -7.6510    0.4998 O.3       1 <0>        -0.7280
     27 C20        -0.6524   -4.1040    2.7406 C.3       1 <0>        -0.0653
     28 C21         0.8456   -5.8860   -1.1868 C.2       1 <0>         0.0055
     29 C22         1.8117   -5.8625   -2.1076 C.2       1 <0>        -0.0876
     30 N3          1.6479   -6.8634   -3.0008 N.2       1 <0>        -0.1274
     31 N4          0.6654   -7.5795   -2.7930 N.2       1 <0>        -0.2173
     32 C23        -0.0115   -7.0739   -1.5866 C.3       1 <0>         0.1697
     33 H2         -0.0159   -7.8283   -0.7998 H         1 <0>         0.1363
     34 O4         -1.3427   -6.6556   -1.8949 O.3       1 <0>        -0.5226
     35 C24         2.9329   -4.8564   -2.1460 C.3       1 <0>        -0.0691
     36 H3         -0.1104    1.7188   -1.4436 H         1 <0>         0.0744
     37 H4         -1.6507    1.2763   -2.2180 H         1 <0>         0.0633
     38 H5         -1.6043    1.6498   -0.4784 H         1 <0>         0.0638
     39 H6         -0.2440   -0.7277   -1.8253 H         1 <0>         0.0587
     40 H7         -0.1976   -0.3541   -0.0856 H         1 <0>         0.0600
     41 H8          0.1675   -2.3555   -0.5663 H         1 <0>         0.1281
     42 H9         -1.7962   -6.0478    0.2698 H         1 <0>         0.1249
     43 H10        -3.9841   -4.9369    0.0782 H         1 <0>         0.1262
     44 H11        -5.5298   -4.0094   -0.9795 H         1 <0>         0.0706
     45 H12        -5.4834   -3.6357    0.7602 H         1 <0>         0.0713
     46 H13        -6.8104   -1.8194    1.6767 H         1 <0>         0.1363
     47 H14        -8.8303   -0.4328    1.4347 H         1 <0>         0.1371
     48 H15        -8.9528   -1.3447   -2.7338 H         1 <0>         0.1369
     49 H16        -6.9270   -2.7224   -2.4899 H         1 <0>         0.1356
     50 H17        -1.7088   -4.2814    2.5392 H         1 <0>         0.0623
     51 H18        -0.5261   -3.8044    3.7810 H         1 <0>         0.0536
     52 H19        -0.2860   -3.3120    2.0874 H         1 <0>         0.0647
     53 H20        -1.9311   -7.3771   -2.1563 H         1 <0>         0.3770
     54 H21         3.7777   -5.2316   -1.5683 H         1 <0>         0.0706
     55 H22         3.2418   -4.6958   -3.1789 H         1 <0>         0.0665
     56 H23         2.5903   -3.9141   -1.7185 H         1 <0>         0.0657
     57 H24         1.4558   -8.1205    3.1486 H         1 <0>         0.4107
@<TRIPOS>BOND
     1    1    2 1
     2    1   36 1
     3    1   37 1
     4    1   38 1
     5    2    3 1
     6    2   39 1
     7    2   40 1
     8    3    4 1
     9    4    9 ar
    10    4    5 ar
    11    5    6 ar
    12    5   41 1
    13    6    7 ar
    14    6   19 1
    15    7    8 ar
    16    7   42 1
    17    8    9 ar
    18    8   43 1
    19    9   10 1
    20   10   11 1
    21   11   12 1
    22   11   44 1
    23   11   45 1
    24   12   17 ar
    25   12   13 ar
    26   13   14 ar
    27   13   46 1
    28   14   15 ar
    29   14   47 1
    30   15   16 ar
    31   15   18 1
    32   16   17 ar
    33   16   48 1
    34   17   49 1
    35   19   20 1
    36   19   21 1
    37   19   28 1
    38   21   25 2
    39   21   22 1
    40   22   27 1
    41   22   23 2
    42   23   24 1
    43   24   25 1
    44   24   57 1
    45   25   26 1
    46   27   50 1
    47   27   51 1
    48   27   52 1
    49   28   32 1
    50   28   29 2
    51   29   30 1
    52   29   35 1
    53   30   31 2
    54   31   32 1
    55   32   33 1
    56   32   34 1
    57   34   53 1
    58   35   54 1
    59   35   55 1
    60   35   56 1
@<TRIPOS>MOLECULE
ZINC39898006
   62    65     0     0     0
SMALL
USER_CHARGES

@<TRIPOS>ATOM
      1 C1         -4.4066    1.9487    1.2629 C.3       1 <0>        -0.1529
      2 C2         -4.7620    0.4738    1.0649 C.3       1 <0>        -0.1210
      3 C3         -3.5156   -0.2965    0.6245 C.3       1 <0>        -0.1195
      4 C4         -3.8709   -1.7714    0.4265 C.3       1 <0>         0.0571
      5 O1         -2.7068   -2.4908    0.0152 O.3       1 <0>        -0.3021
      6 C5         -2.8514   -3.8249   -0.2055 C.ar      1 <0>         0.1146
      7 C6         -4.0878   -4.4268   -0.0355 C.ar      1 <0>        -0.1667
      8 C7         -4.2332   -5.7830   -0.2607 C.ar      1 <0>        -0.1002
      9 C8         -3.1468   -6.5417   -0.6552 C.ar      1 <0>        -0.0994
     10 C9         -1.9104   -5.9475   -0.8262 C.ar      1 <0>        -0.1457
     11 C10        -1.7592   -4.5875   -0.6081 C.ar      1 <0>         0.1060
     12 O2         -0.5449   -4.0003   -0.7817 O.3       1 <0>        -0.3019
     13 C11         0.5197   -4.8353   -1.2414 C.3       1 <0>         0.0546
     14 C12         1.7823   -3.9926   -1.4333 C.3       1 <0>        -0.1512
     15 C13        -3.3108   -8.0198   -0.8989 C.3       1 <0>         0.2520
     16 H1         -4.2840   -8.3533   -0.5388 H         1 <0>         0.1089
     17 C14        -3.1702   -8.3214   -2.3658 C.2       1 <0>        -0.1719
     18 C15        -3.6521   -8.1173   -3.6633 C.2       1 <0>         0.1133
     19 N1         -2.8906   -8.8169   -4.4814 N.2       1 <0>        -0.2255
     20 N2         -1.9761   -9.4422   -3.8293 N.pl3     1 <0>        -0.3326
     21 H2         -1.3034  -10.0174   -4.2261 H         1 <0>         0.4539
     22 C16        -2.0924   -9.1763   -2.4945 C.2       1 <0>        -0.0581
     23 C17        -1.5382   -9.4324   -1.1604 C.2       1 <0>         0.6012
     24 O3         -0.5809  -10.1469   -0.9317 O.2       1 <0>        -0.5020
     25 N3         -2.2398   -8.7651   -0.2246 N.am      1 <0>        -0.5924
     26 C18        -1.9800   -8.7786    1.2171 C.3       1 <0>         0.1400
     27 C19        -2.7709   -9.9155    1.8673 C.3       1 <0>         0.0550
     28 O4         -2.2863  -11.1700    1.3841 O.3       1 <0>        -0.5606
     29 C20        -4.8082   -7.2700   -4.0480 C.ar      1 <0>        -0.0265
     30 C21        -5.6055   -6.6874   -3.0660 C.ar      1 <0>        -0.0756
     31 C22        -6.6804   -5.8996   -3.4291 C.ar      1 <0>        -0.0429
     32 C23        -6.9680   -5.6871   -4.7669 C.ar      1 <0>        -0.0857
     33 C24        -6.1826   -6.2614   -5.7482 C.ar      1 <0>        -0.1333
     34 C25        -5.0978   -7.0487   -5.3971 C.ar      1 <0>         0.1392
     35 O5         -4.3216   -7.6088   -6.3615 O.3       1 <0>        -0.4787
     36 Cl1        -7.6743   -5.1742   -2.2046 Cl        1 <0>        -0.0620
     37 H3         -5.2946    2.4975    1.5766 H         1 <0>         0.0574
     38 H4         -3.6356    2.0371    2.0282 H         1 <0>         0.0560
     39 H5         -4.0365    2.3624    0.3248 H         1 <0>         0.0562
     40 H6         -5.1321    0.0602    2.0030 H         1 <0>         0.0646
     41 H7         -5.5330    0.3854    0.2995 H         1 <0>         0.0650
     42 H8         -3.1454    0.1172   -0.3136 H         1 <0>         0.0743
     43 H9         -2.7445   -0.2081    1.3899 H         1 <0>         0.0741
     44 H10        -4.2411   -2.1850    1.3646 H         1 <0>         0.0621
     45 H11        -4.6420   -1.8598   -0.3388 H         1 <0>         0.0629
     46 H12        -4.9379   -3.8366    0.2733 H         1 <0>         0.1386
     47 H13        -5.1974   -6.2510   -0.1278 H         1 <0>         0.1302
     48 H14        -1.0633   -6.5425   -1.1341 H         1 <0>         0.1290
     49 H15         0.7125   -5.6163   -0.5059 H         1 <0>         0.0602
     50 H16         0.2396   -5.2915   -2.1909 H         1 <0>         0.0584
     51 H17         1.5895   -3.2116   -2.1689 H         1 <0>         0.0672
     52 H18         2.0624   -3.5364   -0.4839 H         1 <0>         0.0678
     53 H19         2.5944   -4.6295   -1.7840 H         1 <0>         0.0785
     54 H20        -0.9149   -8.9300    1.3930 H         1 <0>         0.0969
     55 H21        -2.2882   -7.8272    1.6508 H         1 <0>         0.1033
     56 H22        -2.6481   -9.8710    2.9495 H         1 <0>         0.0618
     57 H23        -3.8268   -9.8131    1.6170 H         1 <0>         0.0498
     58 H24        -2.7432  -11.9373    1.7549 H         1 <0>         0.3789
     59 H25        -5.3839   -6.8517   -2.0219 H         1 <0>         0.1407
     60 H26        -7.8098   -5.0701   -5.0445 H         1 <0>         0.1410
     61 H27        -6.4118   -6.0925   -6.7901 H         1 <0>         0.1436
     62 H28        -4.6180   -8.4842   -6.6458 H         1 <0>         0.3943
@<TRIPOS>BOND
     1    1    2 1
     2    1   37 1
     3    1   38 1
     4    1   39 1
     5    2    3 1
     6    2   40 1
     7    2   41 1
     8    3    4 1
     9    3   42 1
    10    3   43 1
    11    4    5 1
    12    4   44 1
    13    4   45 1
    14    5    6 1
    15    6   11 ar
    16    6    7 ar
    17    7    8 ar
    18    7   46 1
    19    8    9 ar
    20    8   47 1
    21    9   10 ar
    22    9   15 1
    23   10   11 ar
    24   10   48 1
    25   11   12 1
    26   12   13 1
    27   13   14 1
    28   13   49 1
    29   13   50 1
    30   14   51 1
    31   14   52 1
    32   14   53 1
    33   15   16 1
    34   15   25 1
    35   15   17 1
    36   17   22 2
    37   17   18 1
    38   18   19 2
    39   18   29 1
    40   19   20 1
    41   20   21 1
    42   20   22 1
    43   22   23 1
    44   23   24 2
    45   23   25 am
    46   25   26 1
    47   26   27 1
    48   26   54 1
    49   26   55 1
    50   27   28 1
    51   27   56 1
    52   27   57 1
    53   28   58 1
    54   29   34 ar
    55   29   30 ar
    56   30   31 ar
    57   30   59 1
    58   31   32 ar
    59   31   36 1
    60   32   33 ar
    61   32   60 1
    62   33   34 ar
    63   33   61 1
    64   34   35 1
    65   35   62 1
@<TRIPOS>MOLECULE
ZINC64774720
   53    55     0     0     0
SMALL
USER_CHARGES

@<TRIPOS>ATOM
      1 C1         -1.7566   -3.6206    2.1433 C.3       1 <0>        -0.1552
      2 C2         -0.2298   -3.5283    2.1041 C.3       1 <0>        -0.0979
      3 C3          0.1933   -2.0585    2.1410 C.3       1 <0>        -0.1056
      4 H1         -0.2998   -1.5180    1.3330 H         1 <0>         0.1229
      5 C4          1.6876   -1.9615    1.9714 C.2       1 <0>         0.5307
      6 O1          2.4054   -1.8924    2.9467 O.2       1 <0>        -0.4934
      7 N1          2.2264   -1.9517    0.7361 N.am      1 <0>        -0.6658
      8 C5          3.6041   -1.7604    0.5747 C.ar      1 <0>         0.1627
      9 C6          4.2821   -2.4153   -0.4451 C.ar      1 <0>        -0.1165
     10 C7          5.6409   -2.2253   -0.6035 C.ar      1 <0>        -0.1231
     11 C8          6.3280   -1.3828    0.2540 C.ar      1 <0>         0.0872
     12 C9          5.6539   -0.7281    1.2723 C.ar      1 <0>        -0.0516
     13 C10         4.2928   -0.9114    1.4303 C.ar      1 <0>        -0.0792
     14 Cl1         6.5176    0.3277    2.3460 Cl        1 <0>        -0.0430
     15 F1          7.6573   -1.1991    0.0978 F         1 <0>        -0.1294
     16 S1         -0.2829   -1.3319    3.7334 S.3       1 <0>         0.0390
     17 C11         0.0735    0.3832    3.5430 C.ar      1 <0>         0.2740
     18 N2         -0.0764    1.2013    4.5787 N.ar      1 <0>        -0.5628
     19 C12         0.1922    2.4928    4.4345 C.ar      1 <0>         0.4336
     20 O2          0.0486    3.3496    5.4738 O.3       1 <0>        -0.6457
     21 C13         0.6298    2.9529    3.1791 C.ar      1 <0>        -0.0466
     22 N3          0.7591    2.0829    2.1838 N.ar      1 <0>        -0.1782
     23 N4          0.4929    0.8373    2.3682 N.ar      1 <0>        -0.4000
     24 C14         0.9412    4.3861    2.9703 C.ar      1 <0>        -0.0173
     25 C15         1.7485    5.0670    3.8796 C.ar      1 <0>        -0.0565
     26 C16         2.0355    6.4020    3.6806 C.ar      1 <0>        -0.1454
     27 C17         1.5245    7.0693    2.5808 C.ar      1 <0>        -0.1075
     28 C18         0.7226    6.4055    1.6724 C.ar      1 <0>        -0.1470
     29 C19         0.4307    5.0618    1.8555 C.ar      1 <0>         0.1611
     30 N5         -0.3750    4.3871    0.9344 N.am      1 <0>        -0.6523
     31 C20        -0.5330    4.8791   -0.3103 C.2       1 <0>         0.5106
     32 O3          0.0975    5.8539   -0.6616 O.2       1 <0>        -0.5281
     33 C21        -1.4929    4.2182   -1.2657 C.3       1 <0>        -0.1443
     34 C22        -1.4825    4.9679   -2.5994 C.3       1 <0>        -0.1340
     35 H2         -2.1776   -3.0206    1.3366 H         1 <0>         0.0607
     36 H3         -2.0610   -4.6600    2.0200 H         1 <0>         0.0615
     37 H4         -2.1187   -3.2471    3.1011 H         1 <0>         0.0692
     38 H5          0.1878   -4.0484    2.9662 H         1 <0>         0.0803
     39 H6          0.1387   -3.9896    1.1879 H         1 <0>         0.0810
     40 H7          1.6598   -2.0771   -0.0412 H         1 <0>         0.4139
     41 H8          3.7471   -3.0732   -1.1139 H         1 <0>         0.1425
     42 H9          6.1681   -2.7347   -1.3966 H         1 <0>         0.1478
     43 H10         3.7665   -0.3980    2.2214 H         1 <0>         0.1540
     44 H11         2.1487    4.5504    4.7395 H         1 <0>         0.1258
     45 H12         2.6612    6.9285    4.3860 H         1 <0>         0.1184
     46 H13         1.7534    8.1142    2.4322 H         1 <0>         0.1187
     47 H14         0.3267    6.9319    0.8166 H         1 <0>         0.1494
     48 H15        -0.8206    3.5645    1.1909 H         1 <0>         0.4102
     49 H16        -1.1897    3.1839   -1.4279 H         1 <0>         0.0956
     50 H17        -2.4979    4.2403   -0.8443 H         1 <0>         0.0929
     51 H18        -1.7857    6.0022   -2.4371 H         1 <0>         0.0609
     52 H19        -0.4775    4.9458   -3.0208 H         1 <0>         0.0620
     53 H20        -2.1768    4.4899   -3.2904 H         1 <0>         0.0598
@<TRIPOS>BOND
     1    1    2 1
     2    1   35 1
     3    1   36 1
     4    1   37 1
     5    2    3 1
     6    2   38 1
     7    2   39 1
     8    3    4 1
     9    3    5 1
    10    3   16 1
    11    5    6 2
    12    5    7 am
    13    7    8 1
    14    7   40 1
    15    8   13 ar
    16    8    9 ar
    17    9   10 ar
    18    9   41 1
    19   10   11 ar
    20   10   42 1
    21   11   12 ar
    22   11   15 1
    23   12   13 ar
    24   12   14 1
    25   13   43 1
    26   16   17 1
    27   17   18 ar
    28   17   23 ar
    29   18   19 ar
    30   19   20 1
    31   19   21 ar
    32   21   22 ar
    33   21   24 1
    34   22   23 ar
    35   24   29 ar
    36   24   25 ar
    37   25   26 ar
    38   25   44 1
    39   26   27 ar
    40   26   45 1
    41   27   28 ar
    42   27   46 1
    43   28   29 ar
    44   28   47 1
    45   29   30 1
    46   30   31 am
    47   30   48 1
    48   31   32 2
    49   31   33 1
    50   33   34 1
    51   33   49 1
    52   33   50 1
    53   34   51 1
    54   34   52 1
    55   34   53 1
@<TRIPOS>MOLECULE
ZINC13446597
   61    63     0     0     0
SMALL
USER_CHARGES
(2S)-3-methyl-2-[2-[2-[[(1S)-2-methyl-1-phenyl-propyl]amino]-2-oxo-ethyl]sulfanyl-4-oxo-quinazolin-3-yl]butanoic acid
@<TRIPOS>ATOM
      1 C1          2.5373   -8.3072   -2.1111 C.3       1 <0>        -0.1421
      2 C2          3.9305   -8.5213   -1.5161 C.3       1 <0>        -0.1003
      3 C3          4.9635   -7.7605   -2.3497 C.3       1 <0>        -0.1536
      4 C4          3.9554   -8.0033   -0.0766 C.3       1 <0>         0.1917
      5 H1          3.2194   -8.5453    0.5173 H         1 <0>         0.0995
      6 C5          5.3276   -8.2142    0.5095 C.ar      1 <0>        -0.0883
      7 C6          6.3510   -7.3356    0.2066 C.ar      1 <0>        -0.1120
      8 C7          7.6086   -7.5265    0.7477 C.ar      1 <0>        -0.1180
      9 C8          7.8452   -8.6012    1.5844 C.ar      1 <0>        -0.1195
     10 C9          6.8232   -9.4827    1.8831 C.ar      1 <0>        -0.1170
     11 C10         5.5644   -9.2893    1.3454 C.ar      1 <0>        -0.1066
     12 N1          3.6343   -6.5740   -0.0663 N.am      1 <0>        -0.7177
     13 C11         2.3478   -6.1724   -0.0518 C.2       1 <0>         0.5346
     14 O1          1.4560   -6.9942   -0.0472 O.2       1 <0>        -0.5132
     15 C12         2.0176   -4.7020   -0.0412 C.3       1 <0>        -0.1581
     16 S1          0.2204   -4.4875   -0.0226 S.3       1 <0>         0.0815
     17 C13         0.1224   -2.7282   -0.0128 C.2       1 <0>         0.3708
     18 N2          1.2377   -2.0405   -0.0203 N.2       1 <0>        -0.5596
     19 C14         1.2366   -0.6924   -0.0135 C.ar      1 <0>         0.1774
     20 C15         2.4266    0.0415   -0.0209 C.ar      1 <0>        -0.1241
     21 C16         2.3791    1.4069   -0.0131 C.ar      1 <0>        -0.0775
     22 C17         1.1640    2.0798    0.0021 C.ar      1 <0>        -0.1559
     23 C18        -0.0168    1.3899    0.0097 C.ar      1 <0>        -0.0343
     24 C19         0.0021   -0.0041    0.0020 C.ar      1 <0>        -0.1973
     25 C20        -1.2346   -0.7972    0.0101 C.2       1 <0>         0.5593
     26 O2         -2.3279   -0.2622    0.0234 O.2       1 <0>        -0.4790
     27 N3         -1.1125   -2.1451    0.0017 N.am      1 <0>        -0.4949
     28 C21        -2.3132   -2.9843    0.0087 C.3       1 <0>         0.0837
     29 H2         -2.0224   -4.0348    0.0006 H         1 <0>         0.1014
     30 C22        -3.1327   -2.6917    1.2671 C.3       1 <0>        -0.0919
     31 C23        -4.3867   -3.5682    1.2744 C.3       1 <0>        -0.1524
     32 C24        -2.2899   -2.9969    2.5070 C.3       1 <0>        -0.1453
     33 C25        -3.1434   -2.6836   -1.2126 C.2       1 <0>         0.4720
     34 O3         -2.7704   -1.8535   -2.0073 O.co2     1 <0>        -0.6130
     35 H3          2.5196   -8.6762   -3.1366 H         1 <0>         0.0492
     36 H4          1.8013   -8.8492   -1.5172 H         1 <0>         0.0651
     37 H5          2.2984   -7.2437   -2.1034 H         1 <0>         0.0561
     38 H6          4.1694   -9.5847   -1.5237 H         1 <0>         0.0783
     39 H7          5.9560   -7.9130   -1.9258 H         1 <0>         0.0607
     40 H8          4.9458   -8.1295   -3.3752 H         1 <0>         0.0551
     41 H9          4.7246   -6.6970   -2.3421 H         1 <0>         0.0551
     42 H10         6.1671   -6.4981   -0.4501 H         1 <0>         0.1234
     43 H11         8.4071   -6.8376    0.5146 H         1 <0>         0.1230
     44 H12         8.8285   -8.7519    2.0050 H         1 <0>         0.1213
     45 H13         7.0080  -10.3223    2.5368 H         1 <0>         0.1231
     46 H14         4.7659   -9.9780    1.5788 H         1 <0>         0.1246
     47 H15         4.3476   -5.9166   -0.0700 H         1 <0>         0.4014
     48 H16         2.4306   -4.2304   -0.9329 H         1 <0>         0.1272
     49 H17         2.4479   -4.2394    0.8470 H         1 <0>         0.1271
     50 H18         3.3786   -0.4684   -0.0324 H         1 <0>         0.1315
     51 H19         3.2998    1.9714   -0.0193 H         1 <0>         0.1261
     52 H20         1.1516    3.1597    0.0080 H         1 <0>         0.1259
     53 H21        -0.9571    1.9212    0.0170 H         1 <0>         0.1337
     54 H22        -3.4236   -1.6412    1.2751 H         1 <0>         0.0863
     55 H23        -4.0959   -4.6186    1.2664 H         1 <0>         0.0456
     56 H24        -4.9705   -3.3596    2.1710 H         1 <0>         0.0388
     57 H25        -4.9872   -3.3507    0.3911 H         1 <0>         0.1085
     58 H26        -1.3965   -2.3725    2.5018 H         1 <0>         0.0389
     59 H27        -2.8737   -2.7884    3.4035 H         1 <0>         0.0558
     60 H28        -1.9990   -4.0474    2.4990 H         1 <0>         0.0569
     61 O4         -4.2973   -3.3381   -1.4175 O.co2     1 <0>        -0.7389
@<TRIPOS>BOND
     1    1    2 1
     2    1   35 1
     3    1   36 1
     4    1   37 1
     5    2    3 1
     6    2    4 1
     7    2   38 1
     8    3   39 1
     9    3   40 1
    10    3   41 1
    11    4    5 1
    12    4    6 1
    13    4   12 1
    14    6   11 ar
    15    6    7 ar
    16    7    8 ar
    17    7   42 1
    18    8    9 ar
    19    8   43 1
    20    9   10 ar
    21    9   44 1
    22   10   11 ar
    23   10   45 1
    24   11   46 1
    25   12   13 am
    26   12   47 1
    27   13   14 2
    28   13   15 1
    29   15   16 1
    30   15   48 1
    31   15   49 1
    32   16   17 1
    33   17   27 1
    34   17   18 2
    35   18   19 1
    36   19   24 ar
    37   19   20 ar
    38   20   21 ar
    39   20   50 1
    40   21   22 ar
    41   21   51 1
    42   22   23 ar
    43   22   52 1
    44   23   24 ar
    45   23   53 1
    46   24   25 1
    47   25   26 2
    48   25   27 am
    49   27   28 1
    50   28   29 1
    51   28   30 1
    52   28   33 1
    53   30   31 1
    54   30   32 1
    55   30   54 1
    56   31   55 1
    57   31   56 1
    58   31   57 1
    59   32   58 1
    60   32   59 1
    61   32   60 1
    62   33   34 2
    63   33   61 1
@<TRIPOS>MOLECULE
ZINC35697121
   53    56     0     0     0
SMALL
USER_CHARGES

@<TRIPOS>ATOM
      1 C1         -0.0493    1.5715    0.2072 C.3       1 <0>        -0.0922
      2 C2         -0.0343    0.0655    0.1529 C.2       1 <0>         0.3059
      3 C3         -1.2266   -0.6329    0.1484 C.2       1 <0>        -0.3953
      4 C4         -1.1591   -2.1427    0.0925 C.3       1 <0>         0.3045
      5 H1         -1.6765   -2.5343    0.9683 H         1 <0>         0.0875
      6 N1          0.1939   -2.7584    0.0467 N.pl3     1 <0>        -0.5151
      7 C5          0.4925   -4.1053   -0.0078 C.2       1 <0>         0.2339
      8 C6          1.7967   -4.4573   -0.0436 C.2       1 <0>        -0.3020
      9 S1          2.6078   -2.8715    0.0000 S.3       1 <0>         0.1523
     10 C7          1.2484   -1.8889    0.0598 C.2       1 <0>         0.3204
     11 N2          1.1202   -0.5787    0.1044 N.2       1 <0>        -0.5932
     12 C8         -0.5705   -5.1205   -0.0256 C.2       1 <0>        -0.4682
     13 C9         -0.2558   -6.4267    0.0681 C.2       1 <0>         0.5024
     14 O1          1.0240   -6.7997    0.3126 O.3       1 <0>        -0.7022
     15 N3         -1.2400   -7.3886   -0.0854 N.pl3     1 <0>        -0.7510
     16 C10        -0.8978   -8.8094    0.0165 C.3       1 <0>         0.1831
     17 C11        -2.1381   -9.6407   -0.1874 C.ar      1 <0>        -0.1432
     18 C12        -2.9342   -9.9907    0.8927 C.ar      1 <0>        -0.0613
     19 C13        -4.0656  -10.7565    0.6578 C.ar      1 <0>        -0.1762
     20 C14        -4.3605  -11.1431   -0.6362 C.ar      1 <0>         0.0923
     21 N4         -3.5801  -10.7921   -1.6394 N.ar      1 <0>        -0.4878
     22 C15        -2.4995  -10.0591   -1.4538 C.ar      1 <0>         0.1131
     23 C16        -1.9159   -2.5960   -1.1293 C.2       1 <0>        -0.1156
     24 C17        -3.1382   -3.1765   -1.2097 C.2       1 <0>        -0.1371
     25 C18        -3.6408   -3.5113   -2.4531 C.2       1 <0>        -0.1475
     26 C19        -2.8965   -3.2492   -3.5553 C.2       1 <0>        -0.1905
     27 S2         -1.4387   -2.5006   -2.8470 S.3       1 <0>         0.0380
     28 C20        -2.4563    0.0351    0.1944 C.2       1 <0>         0.5378
     29 O2         -2.4871    1.2526    0.2394 O.2       1 <0>        -0.5488
     30 O3         -3.6090   -0.6703    0.1889 O.3       1 <0>        -0.3489
     31 C21        -4.8266    0.0761    0.2376 C.3       1 <0>         0.0973
     32 C22        -5.9979   -0.8720    0.2235 C.2       1 <0>        -0.1458
     33 C23        -6.9974   -0.6905    1.0506 C.2       1 <0>        -0.1826
     34 H2          0.9744    1.9456    0.1981 H         1 <0>         0.0652
     35 H3         -0.5862    1.9609   -0.6578 H         1 <0>         0.0872
     36 H4         -0.5471    1.8972    1.1206 H         1 <0>         0.0872
     37 H5          2.2339   -5.4439   -0.0868 H         1 <0>         0.2333
     38 H6         -1.6037   -4.8189   -0.1139 H         1 <0>         0.0912
     39 H7         -2.1560   -7.1217   -0.2604 H         1 <0>         0.3855
     40 H8         -0.1618   -9.0616   -0.7469 H         1 <0>         0.0644
     41 H9         -0.4820   -9.0131    1.0033 H         1 <0>         0.0621
     42 H10        -2.6787   -9.6745    1.8933 H         1 <0>         0.1347
     43 H11        -4.7083  -11.0477    1.4754 H         1 <0>         0.1330
     44 H12        -5.2401  -11.7397   -0.8277 H         1 <0>         0.1526
     45 H13        -1.8874   -9.7867   -2.3009 H         1 <0>         0.1562
     46 H14        -3.7106   -3.3748   -0.3157 H         1 <0>         0.1275
     47 H15        -4.6118   -3.9751   -2.5450 H         1 <0>         0.1249
     48 H16        -3.1273   -3.4400   -4.5929 H         1 <0>         0.1775
     49 H17        -4.8517    0.6711    1.1505 H         1 <0>         0.0650
     50 H18        -4.8830    0.7361   -0.6280 H         1 <0>         0.0695
     51 H19        -6.0133   -1.7011   -0.4684 H         1 <0>         0.1177
     52 H20        -7.8369   -1.3699    1.0405 H         1 <0>         0.1039
     53 H21        -6.9821    0.1386    1.7425 H         1 <0>         0.0974
@<TRIPOS>BOND
     1    1    2 1
     2    1   34 1
     3    1   35 1
     4    1   36 1
     5    2   11 1
     6    2    3 2
     7    3    4 1
     8    3   28 1
     9    4    5 1
    10    4    6 1
    11    4   23 1
    12    6   10 1
    13    6    7 1
    14    7    8 2
    15    7   12 1
    16    8    9 1
    17    8   37 1
    18    9   10 1
    19   10   11 2
    20   12   13 2
    21   12   38 1
    22   13   14 1
    23   13   15 1
    24   15   16 1
    25   15   39 1
    26   16   17 1
    27   16   40 1
    28   16   41 1
    29   17   22 ar
    30   17   18 ar
    31   18   19 ar
    32   18   42 1
    33   19   20 ar
    34   19   43 1
    35   20   21 ar
    36   20   44 1
    37   21   22 ar
    38   22   45 1
    39   23   27 1
    40   23   24 2
    41   24   25 1
    42   24   46 1
    43   25   26 2
    44   25   47 1
    45   26   27 1
    46   26   48 1
    47   28   29 2
    48   28   30 1
    49   30   31 1
    50   31   32 1
    51   31   49 1
    52   31   50 1
    53   32   33 2
    54   32   51 1
    55   33   52 1
    56   33   53 1
@<TRIPOS>MOLECULE
ZINC36061462
   59    61     0     0     0
SMALL
USER_CHARGES

@<TRIPOS>ATOM
      1 C1          0.0417    1.7804   -0.0159 C.3       1 <0>        -0.0912
      2 C2          0.0504    0.2738    0.0179 C.2       1 <0>         0.3062
      3 C3         -1.1449   -0.4190    0.0428 C.2       1 <0>        -0.3991
      4 C4         -1.0837   -1.9298    0.0757 C.3       1 <0>         0.2652
      5 H1         -1.6250   -2.3065   -0.7922 H         1 <0>         0.0762
      6 N1          0.2669   -2.5525    0.0787 N.pl3     1 <0>        -0.5137
      7 C5          0.5600   -3.9014    0.1058 C.2       1 <0>         0.2293
      8 C6          1.8628   -4.2600    0.1030 C.2       1 <0>        -0.3045
      9 S1          2.6806   -2.6776    0.0617 S.3       1 <0>         0.1375
     10 C7          1.3252   -1.6878    0.0511 C.2       1 <0>         0.3314
     11 N2          1.2025   -0.3768    0.0180 N.2       1 <0>        -0.5939
     12 C8         -0.5074   -4.9116    0.1371 C.2       1 <0>        -0.4679
     13 C9         -0.1984   -6.2130    0.2957 C.2       1 <0>         0.5025
     14 O1          1.0991   -6.6038    0.3163 O.3       1 <0>        -0.7045
     15 N3         -1.2065   -7.1515    0.4375 N.pl3     1 <0>        -0.7497
     16 C10        -0.8705   -8.5670    0.6100 C.3       1 <0>         0.1429
     17 C11        -2.1572   -9.3841    0.7427 C.3       1 <0>         0.0500
     18 O2         -2.8927   -9.3165   -0.4806 O.3       1 <0>        -0.3844
     19 C12        -4.1188  -10.0503   -0.4630 C.3       1 <0>         0.0312
     20 C13        -1.8118   -2.3967    1.3098 C.ar      1 <0>        -0.1047
     21 C14        -3.0622   -2.9748    1.1975 C.ar      1 <0>        -0.0506
     22 C15        -3.7303   -3.4032    2.3293 C.ar      1 <0>        -0.1369
     23 C16        -3.1486   -3.2541    3.5747 C.ar      1 <0>        -0.0940
     24 C17        -1.8985   -2.6768    3.6893 C.ar      1 <0>        -0.1627
     25 C18        -1.2260   -2.2520    2.5557 C.ar      1 <0>         0.1211
     26 F1         -0.0016   -1.6918    2.6662 F         1 <0>        -0.1372
     27 C19        -2.3719    0.2553    0.0381 C.2       1 <0>         0.5417
     28 O3         -2.3994    1.4711    0.1186 O.2       1 <0>        -0.5456
     29 O4         -3.5258   -0.4419   -0.0558 O.3       1 <0>        -0.3479
     30 C20        -4.7405    0.3107   -0.0547 C.3       1 <0>         0.1207
     31 C21        -4.7446    1.2741   -1.2432 C.3       1 <0>        -0.1816
     32 C22        -5.9315   -0.6431   -0.1672 C.3       1 <0>        -0.1387
     33 C23        -4.8460    1.1069    1.2476 C.3       1 <0>        -0.1800
     34 H2          1.0671    2.1492   -0.0371 H         1 <0>         0.0629
     35 H3         -0.4854    2.1207   -0.9072 H         1 <0>         0.0833
     36 H4         -0.4630    2.1608    0.8721 H         1 <0>         0.0884
     37 H5          2.2960   -5.2491    0.1216 H         1 <0>         0.2371
     38 H6         -1.5392   -4.6104    0.0329 H         1 <0>         0.0869
     39 H7         -2.1352   -6.8718    0.4228 H         1 <0>         0.3871
     40 H8         -0.3069   -8.9148   -0.2557 H         1 <0>         0.0592
     41 H9         -0.2675   -8.6903    1.5096 H         1 <0>         0.0659
     42 H10        -1.9074  -10.4227    0.9595 H         1 <0>         0.0558
     43 H11        -2.7628   -8.9793    1.5536 H         1 <0>         0.0504
     44 H12        -3.9096  -11.1027   -0.2712 H         1 <0>         0.0375
     45 H13        -4.7650   -9.6593    0.3228 H         1 <0>         0.0383
     46 H14        -4.6169   -9.9487   -1.4272 H         1 <0>         0.0829
     47 H15        -3.5177   -3.0915    0.2253 H         1 <0>         0.1273
     48 H16        -4.7075   -3.8545    2.2406 H         1 <0>         0.1223
     49 H17        -3.6718   -3.5885    4.4584 H         1 <0>         0.1238
     50 H18        -1.4445   -2.5601    4.6623 H         1 <0>         0.1263
     51 H19        -4.6694    0.7069   -2.1710 H         1 <0>         0.0552
     52 H20        -5.6712    1.8482   -1.2424 H         1 <0>         0.0599
     53 H21        -3.8961    1.9537   -1.1630 H         1 <0>         0.0863
     54 H22        -5.9286   -1.3295    0.6795 H         1 <0>         0.0640
     55 H23        -6.8581   -0.0690   -0.1664 H         1 <0>         0.0697
     56 H24        -5.8563   -1.2103   -1.0950 H         1 <0>         0.0625
     57 H25        -3.9975    1.7864    1.3278 H         1 <0>         0.0854
     58 H26        -5.7726    1.6809    1.2484 H         1 <0>         0.0592
     59 H27        -4.8431    0.4205    2.0943 H         1 <0>         0.0553
@<TRIPOS>BOND
     1    1    2 1
     2    1   34 1
     3    1   35 1
     4    1   36 1
     5    2   11 1
     6    2    3 2
     7    3    4 1
     8    3   27 1
     9    4    5 1
    10    4    6 1
    11    4   20 1
    12    6   10 1
    13    6    7 1
    14    7    8 2
    15    7   12 1
    16    8    9 1
    17    8   37 1
    18    9   10 1
    19   10   11 2
    20   12   13 2
    21   12   38 1
    22   13   14 1
    23   13   15 1
    24   15   16 1
    25   15   39 1
    26   16   17 1
    27   16   40 1
    28   16   41 1
    29   17   18 1
    30   17   42 1
    31   17   43 1
    32   18   19 1
    33   19   44 1
    34   19   45 1
    35   19   46 1
    36   20   25 ar
    37   20   21 ar
    38   21   22 ar
    39   21   47 1
    40   22   23 ar
    41   22   48 1
    42   23   24 ar
    43   23   49 1
    44   24   25 ar
    45   24   50 1
    46   25   26 1
    47   27   28 2
    48   27   29 1
    49   29   30 1
    50   30   31 1
    51   30   32 1
    52   30   33 1
    53   31   51 1
    54   31   52 1
    55   31   53 1
    56   32   54 1
    57   32   55 1
    58   32   56 1
    59   33   57 1
    60   33   58 1
    61   33   59 1
@<TRIPOS>MOLECULE
ZINC40081720
   64    66     0     0     0
SMALL
USER_CHARGES

@<TRIPOS>ATOM
      1 C1          0.4156    2.0574    0.2058 C.3       1 <0>        -0.1711
      2 C2          0.3199    0.5338    0.1035 C.3       1 <0>         0.1236
      3 N1          1.0069   -0.0764    1.2445 N.pl3     1 <0>        -0.6322
      4 C3          0.2692   -0.3580    2.4785 C.3       1 <0>         0.1234
      5 C4         -0.3225   -1.7673    2.4086 C.3       1 <0>        -0.1727
      6 C5          2.3652   -0.3895    1.1559 C.ar      1 <0>         0.2077
      7 C6          3.0675   -0.1178   -0.0114 C.ar      1 <0>        -0.1955
      8 C7          4.4105   -0.4284   -0.0955 C.ar      1 <0>        -0.0585
      9 C8          5.0561   -1.0095    0.9805 C.ar      1 <0>        -0.1199
     10 C9          4.3600   -1.2813    2.1440 C.ar      1 <0>        -0.0407
     11 C10         3.0181   -0.9681    2.2369 C.ar      1 <0>        -0.2019
     12 C11         6.5215   -1.3478    0.8847 C.3       1 <0>         0.2578
     13 H1          6.9421   -0.9346   -0.0321 H         1 <0>         0.0640
     14 C12         6.7117   -2.8464    0.9141 C.2       1 <0>        -0.4794
     15 C13         7.4671   -3.1230    2.0023 C.2       1 <0>         0.2787
     16 C14         7.7896   -1.8622    2.7028 C.2       1 <0>         0.5118
     17 O1          8.4548   -1.7779    3.7159 O.2       1 <0>        -0.5238
     18 N2          7.2386   -0.8201    2.0514 N.am      1 <0>        -0.6072
     19 C15         7.3365    0.5895    2.4382 C.3       1 <0>         0.1399
     20 C16         6.1752    0.9449    3.3687 C.3       1 <0>         0.0513
     21 O2          6.2989    0.2091    4.5874 O.3       1 <0>        -0.5525
     22 O3          7.8638   -4.3577    2.3880 O.3       1 <0>        -0.6145
     23 C17         6.1802   -3.8145   -0.0506 C.2       1 <0>         0.4664
     24 O4          6.3227   -5.0075    0.1432 O.2       1 <0>        -0.4916
     25 C18         5.4722   -3.3420   -1.2566 C.ar      1 <0>        -0.1341
     26 C19         4.0802   -3.4478   -1.3391 C.ar      1 <0>        -0.0405
     27 C20         3.4240   -3.0061   -2.4655 C.ar      1 <0>        -0.2095
     28 C21         4.1433   -2.4552   -3.5205 C.ar      1 <0>         0.1253
     29 C22         5.5273   -2.3486   -3.4428 C.ar      1 <0>        -0.1577
     30 C23         6.1909   -2.7823   -2.3171 C.ar      1 <0>        -0.0218
     31 C24         7.6905   -2.6600   -2.2311 C.3       1 <0>        -0.1255
     32 O5          3.4925   -2.0209   -4.6292 O.3       1 <0>        -0.3191
     33 C25         2.0704   -2.1608   -4.6433 C.3       1 <0>         0.0563
     34 C26         1.5179   -1.6206   -5.9638 C.3       1 <0>        -0.1509
     35 H2          1.4637    2.3567    0.2013 H         1 <0>         0.0592
     36 H3         -0.0955    2.5114   -0.6432 H         1 <0>         0.0588
     37 H4         -0.0531    2.3895    1.1321 H         1 <0>         0.0525
     38 H5         -0.7282    0.2345    0.1080 H         1 <0>         0.0659
     39 H6          0.7886    0.2017   -0.8228 H         1 <0>         0.0726
     40 H7          0.9462   -0.2901    3.3301 H         1 <0>         0.0731
     41 H8         -0.5351    0.3684    2.5949 H         1 <0>         0.0659
     42 H9         -0.8713   -1.9768    3.3267 H         1 <0>         0.0595
     43 H10        -0.9995   -1.8352    1.5570 H         1 <0>         0.0523
     44 H11         0.4818   -2.4937    2.2922 H         1 <0>         0.0612
     45 H12         2.5637    0.3354   -0.8524 H         1 <0>         0.1117
     46 H13         4.9571   -0.2174   -1.0027 H         1 <0>         0.1127
     47 H14         4.8672   -1.7353    2.9825 H         1 <0>         0.1163
     48 H15         2.4761   -1.1766    3.1475 H         1 <0>         0.1130
     49 H16         8.2811    0.7598    2.9547 H         1 <0>         0.0809
     50 H17         7.2921    1.2148    1.5465 H         1 <0>         0.0854
     51 H18         6.1969    2.0130    3.5853 H         1 <0>         0.0414
     52 H19         5.2316    0.6914    2.8854 H         1 <0>         0.0586
     53 H20         5.5947    0.3850    5.2263 H         1 <0>         0.3672
     54 H21         3.5210   -3.8759   -0.5203 H         1 <0>         0.1184
     55 H22         2.3491   -3.0878   -2.5301 H         1 <0>         0.1194
     56 H23         6.0822   -1.9208   -4.2646 H         1 <0>         0.1255
     57 H24         8.1501   -3.5968   -2.5462 H         1 <0>         0.0715
     58 H25         8.0272   -1.8532   -2.8820 H         1 <0>         0.0636
     59 H26         7.9788   -2.4417   -1.2028 H         1 <0>         0.0867
     60 H27         1.8079   -3.2139   -4.5433 H         1 <0>         0.0587
     61 H28         1.6419   -1.5991   -3.8132 H         1 <0>         0.0591
     62 H29         1.7804   -0.5674   -6.0638 H         1 <0>         0.0646
     63 H30         1.9464   -2.1823   -6.7939 H         1 <0>         0.0644
     64 H31         0.4331   -1.7273   -5.9745 H         1 <0>         0.0745
@<TRIPOS>BOND
     1    1    2 1
     2    1   35 1
     3    1   36 1
     4    1   37 1
     5    2    3 1
     6    2   38 1
     7    2   39 1
     8    3    4 1
     9    3    6 1
    10    4    5 1
    11    4   40 1
    12    4   41 1
    13    5   42 1
    14    5   43 1
    15    5   44 1
    16    6   11 ar
    17    6    7 ar
    18    7    8 ar
    19    7   45 1
    20    8    9 ar
    21    8   46 1
    22    9   10 ar
    23    9   12 1
    24   10   11 ar
    25   10   47 1
    26   11   48 1
    27   12   13 1
    28   12   18 1
    29   12   14 1
    30   14   15 2
    31   14   23 1
    32   15   16 1
    33   15   22 1
    34   16   17 2
    35   16   18 am
    36   18   19 1
    37   19   20 1
    38   19   49 1
    39   19   50 1
    40   20   21 1
    41   20   51 1
    42   20   52 1
    43   21   53 1
    44   23   24 2
    45   23   25 1
    46   25   30 ar
    47   25   26 ar
    48   26   27 ar
    49   26   54 1
    50   27   28 ar
    51   27   55 1
    52   28   29 ar
    53   28   32 1
    54   29   30 ar
    55   29   56 1
    56   30   31 1
    57   31   57 1
    58   31   58 1
    59   31   59 1
    60   32   33 1
    61   33   34 1
    62   33   60 1
    63   33   61 1
    64   34   62 1
    65   34   63 1
    66   34   64 1
@<TRIPOS>MOLECULE
ZINC35397573
   52    54     0     0     0
SMALL
USER_CHARGES

@<TRIPOS>ATOM
      1 C1          1.2247    1.8922   -0.4201 C.3       1 <0>        -0.1478
      2 C2          1.0576    0.3733   -0.4984 C.3       1 <0>        -0.1246
      3 C3          1.4384   -0.2515    0.8453 C.3       1 <0>        -0.1261
      4 C4          1.2713   -1.7704    0.7671 C.3       1 <0>         0.1479
      5 N1          1.6359   -2.3687    2.0537 N.pl3     1 <0>        -0.6232
      6 C5          0.6169   -2.5558    3.0895 C.3       1 <0>         0.1987
      7 C6         -0.0405   -3.9000    2.9103 C.ar      1 <0>        -0.1081
      8 C7         -1.1484   -4.0241    2.0930 C.ar      1 <0>        -0.1051
      9 C8         -1.7514   -5.2571    1.9286 C.ar      1 <0>        -0.1226
     10 C9         -1.2463   -6.3660    2.5813 C.ar      1 <0>        -0.1239
     11 C10        -0.1379   -6.2421    3.3980 C.ar      1 <0>        -0.1204
     12 C11         0.4677   -5.0099    3.5590 C.ar      1 <0>        -0.1147
     13 C12         2.9428   -2.7570    2.2905 C.ar      1 <0>         0.3438
     14 C13         3.8074   -1.9032    2.9988 C.ar      1 <0>        -0.1087
     15 C14         5.1270   -2.3164    3.2275 C.ar      1 <0>        -0.0225
     16 C15         5.5220   -3.5557    2.7420 C.ar      1 <0>         0.2649
     17 C16         4.6065   -4.3408    2.0511 C.ar      1 <0>        -0.0767
     18 N2          3.3686   -3.9315    1.8537 N.ar      1 <0>        -0.4121
     19 N3          6.8310   -4.0104    2.9460 N.2       1 <0>        -1.0533
     20 S1          7.2939   -5.4899    2.3636 S.o2      1 <0>         2.6381
     21 O1          6.5505   -6.4616    3.0864 O.2       1 <0>        -1.0117
     22 O2          7.2532   -5.3991    0.9461 O.2       1 <0>        -1.0122
     23 C17         8.9843   -5.7180    2.8054 C.2       1 <0>        -0.6863
     24 C18         9.5061   -6.2826    3.9217 C.2       1 <0>        -0.0311
     25 C19        10.8798   -6.3558    4.0565 C.2       1 <0>        -0.1844
     26 C20        11.6645   -5.8608    3.0684 C.2       1 <0>        -0.1572
     27 S2         10.4541   -5.2725    1.8953 S.3       1 <0>         0.1509
     28 C21         3.3355   -0.6001    3.4901 C.2       1 <0>         0.5309
     29 O3          4.1236    0.1817    4.0047 O.co2     1 <0>        -0.6689
     30 O4          2.1546   -0.2976    3.3843 O.co2     1 <0>        -0.6483
     31 H1          2.2626    2.1320   -0.1890 H         1 <0>         0.0545
     32 H2          0.9534    2.3373   -1.3774 H         1 <0>         0.0445
     33 H3          0.5772    2.2891    0.3617 H         1 <0>         0.0545
     34 H4          0.0197    0.1334   -0.7295 H         1 <0>         0.0527
     35 H5          1.7051   -0.0237   -1.2802 H         1 <0>         0.0508
     36 H6          2.4762   -0.0116    1.0764 H         1 <0>         0.0694
     37 H7          0.7909    0.1455    1.6271 H         1 <0>         0.0852
     38 H8          0.2334   -2.0103    0.5359 H         1 <0>         0.0678
     39 H9          1.9187   -2.1674   -0.0148 H         1 <0>         0.0516
     40 H10         1.0852   -2.5086    4.0726 H         1 <0>         0.0816
     41 H11        -0.1340   -1.7702    3.0066 H         1 <0>         0.0898
     42 H12        -1.5430   -3.1577    1.5830 H         1 <0>         0.1219
     43 H13        -2.6174   -5.3539    1.2906 H         1 <0>         0.1188
     44 H14        -1.7179   -7.3292    2.4535 H         1 <0>         0.1178
     45 H15         0.2565   -7.1084    3.9082 H         1 <0>         0.1199
     46 H16         1.3360   -4.9138    4.1941 H         1 <0>         0.1187
     47 H17         5.8189   -1.6868    3.7672 H         1 <0>         0.1646
     48 H18         4.9131   -5.3049    1.6732 H         1 <0>         0.1586
     49 H19         8.8582   -6.6693    4.6945 H         1 <0>         0.1448
     50 H20        11.3213   -6.8005    4.9362 H         1 <0>         0.1399
     51 H21        12.7423   -5.8330    3.0052 H         1 <0>         0.1915
     52 H22         2.7538   -4.5058    1.3710 H         1 <0>         0.4160
@<TRIPOS>BOND
     1    1    2 1
     2    1   31 1
     3    1   32 1
     4    1   33 1
     5    2    3 1
     6    2   34 1
     7    2   35 1
     8    3    4 1
     9    3   36 1
    10    3   37 1
    11    4    5 1
    12    4   38 1
    13    4   39 1
    14    5    6 1
    15    5   13 1
    16    6    7 1
    17    6   40 1
    18    6   41 1
    19    7   12 ar
    20    7    8 ar
    21    8    9 ar
    22    8   42 1
    23    9   10 ar
    24    9   43 1
    25   10   11 ar
    26   10   44 1
    27   11   12 ar
    28   11   45 1
    29   12   46 1
    30   13   18 ar
    31   13   14 ar
    32   14   15 ar
    33   14   28 1
    34   15   16 ar
    35   15   47 1
    36   16   17 ar
    37   16   19 1
    38   17   18 ar
    39   17   48 1
    40   18   52 1
    41   19   20 1
    42   20   21 2
    43   20   22 2
    44   20   23 1
    45   23   27 1
    46   23   24 2
    47   24   25 1
    48   24   49 1
    49   25   26 2
    50   25   50 1
    51   26   27 1
    52   26   51 1
    53   28   29 2
    54   28   30 1
@<TRIPOS>MOLECULE
ZINC13312476
   38    38     0     0     0
SMALL
USER_CHARGES
5-[[2-(tert-butylamino)-2-oxo-ethyl]sulfamoyl]-2,4-dichloro-benzoic acid
@<TRIPOS>ATOM
      1 C1          3.7148    3.3243   -1.2649 C.3       1 <0>        -0.1656
      2 C2          2.9987    3.8178   -0.0061 C.3       1 <0>         0.1679
      3 C3          2.9779    5.3476    0.0023 C.3       1 <0>        -0.1557
      4 C4          3.7387    3.3109    1.2335 C.3       1 <0>        -0.1654
      5 N1          1.6243    3.3107    0.0043 N.am      1 <0>        -0.7229
      6 C5          1.3960    1.9824   -0.0006 C.2       1 <0>         0.5155
      7 O1          2.3284    1.2069   -0.0137 O.2       1 <0>        -0.5241
      8 C6         -0.0178    1.4608    0.0101 C.3       1 <0>         0.0895
      9 N2          0.0021   -0.0041    0.0020 N.pl3     1 <0>        -1.1009
     10 S1         -1.3682   -0.8528    0.3817 S.o2      1 <0>         2.7008
     11 O2         -1.0398   -2.2300    0.2599 O.2       1 <0>        -0.9417
     12 O3         -1.8715   -0.2934    1.5872 O.2       1 <0>        -0.9436
     13 C7         -2.5592   -0.5065   -0.8698 C.ar      1 <0>        -0.6869
     14 C8         -2.9940   -1.5151   -1.7030 C.ar      1 <0>         0.0455
     15 C9         -3.9385   -1.2397   -2.6946 C.ar      1 <0>        -0.1169
     16 C10        -4.4369    0.0591   -2.8352 C.ar      1 <0>         0.0497
     17 C11        -3.9929    1.0596   -1.9942 C.ar      1 <0>        -0.1348
     18 C12        -3.0604    0.7775   -1.0102 C.ar      1 <0>         0.0498
     19 Cl1        -2.5118    2.0397    0.0479 Cl        1 <0>        -0.0532
     20 Cl2        -5.6105    0.4126   -4.0646 Cl        1 <0>        -0.0149
     21 C13        -4.4085   -2.3149   -3.5895 C.2       1 <0>         0.4853
     22 O4         -5.2301   -2.0724   -4.4511 O.co2     1 <0>        -0.5981
     23 H1          3.1876    3.6854   -2.1479 H         1 <0>         0.0552
     24 H2          4.7374    3.7016   -1.2726 H         1 <0>         0.0628
     25 H3          3.7296    2.2345   -1.2709 H         1 <0>         0.0796
     26 H4          2.4678    5.6991    0.8991 H         1 <0>         0.0625
     27 H5          4.0005    5.7249   -0.0054 H         1 <0>         0.0736
     28 H6          2.4508    5.7087   -0.8807 H         1 <0>         0.0631
     29 H7          3.7535    2.2210    1.2275 H         1 <0>         0.0795
     30 H8          4.7613    3.6882    1.2257 H         1 <0>         0.0628
     31 H9          3.2285    3.6624    2.1303 H         1 <0>         0.0546
     32 H10         0.8786    3.9309    0.0148 H         1 <0>         0.4014
     33 H11        -0.5450    1.8219   -0.8730 H         1 <0>         0.1024
     34 H12        -0.5280    1.8123    0.9069 H         1 <0>         0.1117
     35 H13         0.8179   -0.4768   -0.2257 H         1 <0>         0.4298
     36 H14        -2.6049   -2.5161   -1.5895 H         1 <0>         0.1713
     37 H15        -4.3769    2.0634   -2.1009 H         1 <0>         0.1494
     38 O5         -3.9266   -3.5654   -3.4511 O.co2     1 <0>        -0.7387
@<TRIPOS>BOND
     1    1    2 1
     2    1   23 1
     3    1   24 1
     4    1   25 1
     5    2    3 1
     6    2    4 1
     7    2    5 1
     8    3   26 1
     9    3   27 1
    10    3   28 1
    11    4   29 1
    12    4   30 1
    13    4   31 1
    14    5    6 am
    15    5   32 1
    16    6    7 2
    17    6    8 1
    18    8    9 1
    19    8   33 1
    20    8   34 1
    21    9   10 1
    22    9   35 1
    23   10   11 2
    24   10   12 2
    25   10   13 1
    26   13   18 ar
    27   13   14 ar
    28   14   15 ar
    29   14   36 1
    30   15   16 ar
    31   15   21 1
    32   16   17 ar
    33   16   20 1
    34   17   18 ar
    35   17   37 1
    36   18   19 1
    37   21   22 2
    38   21   38 1
@<TRIPOS>MOLECULE
ZINC33330674
   36    37     0     0     0
SMALL
USER_CHARGES
N-[2-[(2-chloro-6-fluoro-phenyl)methylsulfanyl]ethyl]-2-hydroxy-6-oxo-1H-pyrimidine-5-sulfonamide
@<TRIPOS>ATOM
      1 C1         -0.0039    4.2623    0.0200 C.ar      1 <0>        -0.0737
      2 C2         -1.1949    3.5608    0.0250 C.ar      1 <0>        -0.1503
      3 C3         -1.1831    2.1764    0.0123 C.ar      1 <0>         0.1309
      4 C4          0.0224    1.4953    0.0066 C.ar      1 <0>        -0.1002
      5 C5          1.2131    2.1987    0.0017 C.ar      1 <0>         0.0053
      6 C6          1.1993    3.5825    0.0081 C.ar      1 <0>        -0.1216
      7 Cl1         2.7251    1.3457   -0.0121 Cl        1 <0>        -0.0427
      8 C7          0.0369   -0.0117   -0.0003 C.3       1 <0>        -0.0586
      9 S1          0.0545   -0.6241    1.7070 S.3       1 <0>        -0.2234
     10 C8          0.0706   -2.4289    1.5258 C.3       1 <0>        -0.0952
     11 C9          0.0863   -3.0804    2.9100 C.3       1 <0>         0.1382
     12 N1          0.0995   -4.5380    2.7636 N.pl3     1 <0>        -1.1241
     13 S2          0.4887   -5.4966    4.0566 S.o2      1 <0>         2.7317
     14 O1          0.3873   -6.8418    3.6100 O.2       1 <0>        -0.9623
     15 O2          1.6850   -4.9658    4.6101 O.2       1 <0>        -0.9834
     16 C10        -0.7699   -5.2723    5.2691 C.2       1 <0>        -0.9729
     17 C11        -0.5327   -4.5258    6.3856 C.2       1 <0>         0.3282
     18 N2         -1.4900   -4.3672    7.2983 N.2       1 <0>        -0.6148
     19 C12        -2.6752   -4.9186    7.1511 C.2       1 <0>         0.6292
     20 N3         -2.9701   -5.6725    6.0605 N.am      1 <0>        -0.6744
     21 H1         -3.9663   -6.1280    5.9598 H         1 <0>         0.4252
     22 C13        -2.0373   -5.8602    5.1024 C.2       1 <0>         0.5951
     23 O3         -2.2872   -6.5299    4.1137 O.2       1 <0>        -0.5700
     24 O4         -3.6148   -4.7316    8.1003 O.3       1 <0>        -0.6475
     25 F1         -2.3470    1.4904    0.0111 F         1 <0>        -0.1236
     26 H2         -0.0135    5.3422    0.0250 H         1 <0>         0.1446
     27 H3         -2.1348    4.0926    0.0342 H         1 <0>         0.1447
     28 H4          2.1293    4.1314    0.0042 H         1 <0>         0.1431
     29 H5         -0.8612   -0.3846   -0.5145 H         1 <0>         0.0987
     30 H6          0.9350   -0.3673   -0.5267 H         1 <0>         0.1034
     31 H7         -0.8283   -2.7506    0.9794 H         1 <0>         0.0895
     32 H8          0.9679   -2.7334    0.9671 H         1 <0>         0.0930
     33 H9          0.9852   -2.7587    3.4564 H         1 <0>         0.0911
     34 H10        -0.8110   -2.7761    3.4687 H         1 <0>         0.0675
     35 H11        -0.3049   -5.0029    1.8523 H         1 <0>         0.4356
     36 H12         0.3606   -4.0968    6.5198 H         1 <0>         0.1436
@<TRIPOS>BOND
     1    1    6 ar
     2    1    2 ar
     3    1   26 1
     4    2    3 ar
     5    2   27 1
     6    3    4 ar
     7    3   25 1
     8    4    5 ar
     9    4    8 1
    10    5    6 ar
    11    5    7 1
    12    6   28 1
    13    8    9 1
    14    8   29 1
    15    8   30 1
    16    9   10 1
    17   10   11 1
    18   10   31 1
    19   10   32 1
    20   11   12 1
    21   11   33 1
    22   11   34 1
    23   12   13 1
    24   12   35 1
    25   13   14 2
    26   13   15 2
    27   13   16 1
    28   16   22 1
    29   16   17 2
    30   17   18 1
    31   17   36 1
    32   18   19 2
    33   19   24 1
    34   19   20 1
    35   20   21 1
    36   20   22 am
    37   22   23 2
@<TRIPOS>MOLECULE
ZINC44667924
   42    44     0     0     0
SMALL
USER_CHARGES

@<TRIPOS>ATOM
      1 C1         -0.0073    1.4510    0.0484 C.3       1 <0>         0.0656
      2 N1          0.0065   -0.0138    0.0297 N.pl3     1 <0>        -0.4096
      3 C2         -0.0838   -0.7911   -1.0769 C.2       1 <0>         0.1330
      4 C3         -0.0364   -2.0922   -0.7034 C.2       1 <0>        -0.6885
      5 C4          0.0884   -2.1347    0.6887 C.2       1 <0>        -0.0434
      6 C5          0.1193   -0.8297    1.1326 C.2       1 <0>        -0.0806
      7 C6          0.2459   -0.3908    2.5264 C.2       1 <0>         0.6025
      8 O1          0.1698    0.7923    2.8011 O.2       1 <0>        -0.5598
      9 N2          0.4465   -1.2978    3.5029 N.am      1 <0>        -0.8432
     10 S1         -0.1174   -3.4843   -1.7806 S.o2      1 <0>         2.6333
     11 O2         -0.5890   -4.5744   -1.0006 O.2       1 <0>        -1.0320
     12 O3         -0.7804   -3.0477   -2.9592 O.2       1 <0>        -1.0362
     13 N3          1.4357   -3.8540   -2.2206 N.2       1 <0>        -1.0824
     14 C7          1.6818   -4.9289   -3.0825 C.ar      1 <0>         0.3046
     15 C8          0.6264   -5.6821   -3.5738 C.ar      1 <0>        -0.2524
     16 C9          0.8718   -6.7439   -4.4248 C.ar      1 <0>        -0.0655
     17 C10         2.1683   -7.0584   -4.7888 C.ar      1 <0>        -0.2134
     18 C11         3.2268   -6.3129   -4.3044 C.ar      1 <0>        -0.0794
     19 C12         2.9895   -5.2422   -3.4546 C.ar      1 <0>        -0.1639
     20 S2          4.3361   -4.2859   -2.8409 S.3       1 <0>         0.0154
     21 C13         5.7642   -5.1329   -3.4305 C.ar      1 <0>        -0.1356
     22 C14         6.3751   -4.7296   -4.6120 C.ar      1 <0>        -0.0719
     23 C15         7.4943   -5.3955   -5.0707 C.ar      1 <0>        -0.1340
     24 C16         8.0076   -6.4626   -4.3561 C.ar      1 <0>        -0.1069
     25 C17         7.4021   -6.8670   -3.1802 C.ar      1 <0>        -0.1334
     26 C18         6.2859   -6.2023   -2.7123 C.ar      1 <0>        -0.0712
     27 H1          1.0169    1.8239    0.0569 H         1 <0>         0.0778
     28 H2         -0.5213    1.8209   -0.8388 H         1 <0>         0.0857
     29 H3         -0.5277    1.7981    0.9411 H         1 <0>         0.0999
     30 H4         -0.1783   -0.4317   -2.0909 H         1 <0>         0.1847
     31 H5          0.1521   -3.0223    1.3006 H         1 <0>         0.1545
     32 H6          0.5803   -2.2317    3.2774 H         1 <0>         0.4073
     33 H7          0.4571   -1.0167    4.4313 H         1 <0>         0.4068
     34 H8         -0.3875   -5.4396   -3.2914 H         1 <0>         0.1020
     35 H9          0.0485   -7.3297   -4.8062 H         1 <0>         0.1037
     36 H10         2.3544   -7.8893   -5.4532 H         1 <0>         0.1025
     37 H11         4.2381   -6.5616   -4.5905 H         1 <0>         0.1037
     38 H12         5.9746   -3.8967   -5.1707 H         1 <0>         0.1292
     39 H13         7.9693   -5.0829   -5.9889 H         1 <0>         0.1214
     40 H14         8.8831   -6.9816   -4.7173 H         1 <0>         0.1190
     41 H15         7.8054   -7.7009   -2.6249 H         1 <0>         0.1214
     42 H16         5.8163   -6.5158   -1.7917 H         1 <0>         0.1291
@<TRIPOS>BOND
     1    1    2 1
     2    1   27 1
     3    1   28 1
     4    1   29 1
     5    2    6 1
     6    2    3 1
     7    3    4 2
     8    3   30 1
     9    4    5 1
    10    4   10 1
    11    5    6 2
    12    5   31 1
    13    6    7 1
    14    7    8 2
    15    7    9 am
    16    9   32 1
    17    9   33 1
    18   10   11 2
    19   10   12 2
    20   10   13 1
    21   13   14 1
    22   14   19 ar
    23   14   15 ar
    24   15   16 ar
    25   15   34 1
    26   16   17 ar
    27   16   35 1
    28   17   18 ar
    29   17   36 1
    30   18   19 ar
    31   18   37 1
    32   19   20 1
    33   20   21 1
    34   21   26 ar
    35   21   22 ar
    36   22   23 ar
    37   22   38 1
    38   23   24 ar
    39   23   39 1
    40   24   25 ar
    41   24   40 1
    42   25   26 ar
    43   25   41 1
    44   26   42 1
@<TRIPOS>MOLECULE
ZINC62676059
   38    39     0     0     0
SMALL
USER_CHARGES

@<TRIPOS>ATOM
      1 C1         -1.5670    0.9367   -0.0870 C.ar      1 <0>        -0.0242
      2 C2         -0.6227    1.7682   -0.6614 C.ar      1 <0>        -0.1872
      3 C3          0.6405    1.2875   -0.9528 C.ar      1 <0>        -0.0135
      4 C4          0.9635   -0.0255   -0.6709 C.ar      1 <0>        -0.1325
      5 C5          0.0177   -0.8632   -0.0941 C.ar      1 <0>         0.2868
      6 C6         -1.2507   -0.3770    0.1973 C.ar      1 <0>        -0.2002
      7 N1          0.3408   -2.1917    0.1918 N.pl3     1 <0>        -0.6981
      8 C7         -0.6885   -3.1034    0.6974 C.3       1 <0>         0.1142
      9 C8         -0.0856   -4.4659    0.9235 C.2       1 <0>         0.3170
     10 O1          0.3720   -5.1797   -0.1192 O.3       1 <0>        -0.6364
     11 C9         -0.0043   -4.9744    2.1858 C.2       1 <0>        -0.4193
     12 C10         0.4627   -6.3126    2.3900 C.1       1 <0>         0.3283
     13 N2          0.8332   -7.3742    2.5519 N.1       1 <0>        -0.5241
     14 C11        -0.3961   -4.1489    3.3373 C.2       1 <0>         0.6132
     15 O2          0.4556   -3.5943    4.0061 O.2       1 <0>        -0.5269
     16 N3         -1.6988   -4.0066    3.6522 N.am      1 <0>        -0.6778
     17 C12        -2.0785   -3.1427    4.6861 C.ar      1 <0>         0.1630
     18 C13        -3.2414   -2.3919    4.5729 C.ar      1 <0>        -0.1192
     19 C14        -3.6151   -1.5403    5.5940 C.ar      1 <0>        -0.1218
     20 C15        -2.8311   -1.4341    6.7303 C.ar      1 <0>         0.0810
     21 C16        -1.6704   -2.1820    6.8458 C.ar      1 <0>        -0.0523
     22 C17        -1.2962   -3.0397    5.8283 C.ar      1 <0>        -0.0888
     23 Cl1        -0.6893   -2.0469    8.2716 Cl        1 <0>        -0.0508
     24 F1         -3.1981   -0.5998    7.7276 F         1 <0>        -0.1319
     25 N4          2.3158   -0.5394   -0.9836 N.pl3     1 <0>         0.0427
     26 O3          3.2835    0.1665   -0.8195 O.2       1 <0>        -0.1636
     27 O4          2.4527   -1.6649   -1.4031 O.3       1 <0>        -0.1686
     28 H1         -2.5513    1.3166    0.1434 H         1 <0>         0.1370
     29 H2         -0.8728    2.7952   -0.8832 H         1 <0>         0.1374
     30 H3          1.3754    1.9393   -1.4016 H         1 <0>         0.1410
     31 H4         -1.9884   -1.0257    0.6461 H         1 <0>         0.1422
     32 H5          1.2467   -2.5106    0.0557 H         1 <0>         0.4183
     33 H6         -1.0831   -2.7199    1.6383 H         1 <0>         0.0695
     34 H7         -1.4958   -3.1796   -0.0310 H         1 <0>         0.0828
     35 H8         -2.3732   -4.5027    3.1624 H         1 <0>         0.4155
     36 H9         -3.8531   -2.4736    3.6866 H         1 <0>         0.1431
     37 H10        -4.5194   -0.9565    5.5059 H         1 <0>         0.1462
     38 H11        -0.3937   -3.6258    5.9200 H         1 <0>         0.1581
@<TRIPOS>BOND
     1    1    6 ar
     2    1    2 ar
     3    1   28 1
     4    2    3 ar
     5    2   29 1
     6    3    4 ar
     7    3   30 1
     8    4    5 ar
     9    4   25 1
    10    5    6 ar
    11    5    7 1
    12    6   31 1
    13    7    8 1
    14    7   32 1
    15    8    9 1
    16    8   33 1
    17    8   34 1
    18    9   10 1
    19    9   11 2
    20   11   12 1
    21   11   14 1
    22   12   13 3
    23   14   15 2
    24   14   16 am
    25   16   17 1
    26   16   35 1
    27   17   22 ar
    28   17   18 ar
    29   18   19 ar
    30   18   36 1
    31   19   20 ar
    32   19   37 1
    33   20   21 ar
    34   20   24 1
    35   21   22 ar
    36   21   23 1
    37   22   38 1
    38   25   26 2
    39   25   27 1
@<TRIPOS>MOLECULE
ZINC67292704
   45    47     0     0     0
SMALL
USER_CHARGES

@<TRIPOS>ATOM
      1 C1         -0.0225    1.8097    0.0120 C.3       1 <0>        -0.6370
      2 S1          0.0021   -0.0041    0.0020 S.o2      1 <0>         2.5248
      3 O1          0.8352   -0.4880    1.0465 O.2       1 <0>        -1.0308
      4 O2         -1.3147   -0.5105   -0.1678 O.2       1 <0>        -1.0301
      5 N1          0.7947   -0.4113   -1.3938 N.2       1 <0>        -1.0888
      6 C2          0.9920   -1.7554   -1.7182 C.ar      1 <0>         0.3012
      7 C3          0.5188   -2.7521   -0.8738 C.ar      1 <0>        -0.2582
      8 C4          0.7152   -4.0799   -1.1978 C.ar      1 <0>        -0.0609
      9 C5          1.3824   -4.4182   -2.3611 C.ar      1 <0>        -0.2317
     10 C6          1.8549   -3.4289   -3.2034 C.ar      1 <0>        -0.0582
     11 C7          1.6566   -2.0987   -2.8885 C.ar      1 <0>        -0.1936
     12 C8          2.1661   -1.0210   -3.8105 C.3       1 <0>         0.1990
     13 N2          3.4299   -0.4919   -3.2917 N.am      1 <0>        -0.6973
     14 C9          4.0738    0.4878   -3.9567 C.2       1 <0>         0.5509
     15 O3          3.6058    0.9325   -4.9873 O.2       1 <0>        -0.5368
     16 C10         5.3448    1.0200   -3.4349 C.ar      1 <0>        -0.1671
     17 C11         5.8883    0.5066   -2.2531 C.ar      1 <0>        -0.0388
     18 C12         7.0750    1.0058   -1.7688 C.ar      1 <0>        -0.1579
     19 C13         7.7386    2.0221   -2.4511 C.ar      1 <0>         0.1748
     20 C14         7.2078    2.5389   -3.6243 C.ar      1 <0>        -0.1833
     21 C15         6.0173    2.0396   -4.1249 C.ar      1 <0>         0.1962
     22 O4          5.4998    2.5389   -5.2752 O.3       1 <0>        -0.4725
     23 N3          8.9442    2.5243   -1.9518 N.pl3     1 <0>        -0.3973
     24 C16         9.6885    3.5199   -2.5189 C.2       1 <0>        -0.0148
     25 C17        10.7760    3.7234   -1.7485 C.2       1 <0>        -0.1899
     26 C18        10.7030    2.8226   -0.6664 C.2       1 <0>        -0.1906
     27 C19         9.5710    2.1051   -0.8124 C.2       1 <0>        -0.0118
     28 H1          1.0001    2.1870    0.0043 H         1 <0>         0.1137
     29 H2         -0.5497    2.1708   -0.8711 H         1 <0>         0.1151
     30 H3         -0.5327    2.1613    0.9088 H         1 <0>         0.1002
     31 H4         -0.0016   -2.4886    0.0351 H         1 <0>         0.1017
     32 H5          0.3476   -4.8552   -0.5419 H         1 <0>         0.1002
     33 H6          1.5349   -5.4576   -2.6119 H         1 <0>         0.1009
     34 H7          2.3761   -3.6964   -4.1107 H         1 <0>         0.1044
     35 H8          2.3279   -1.4394   -4.8039 H         1 <0>         0.0526
     36 H9          1.4326   -0.2169   -3.8699 H         1 <0>         0.0797
     37 H10         3.8032   -0.8465   -2.4697 H         1 <0>         0.3969
     38 H11         5.3763   -0.2813   -1.7207 H         1 <0>         0.1438
     39 H12         7.4934    0.6082   -0.8560 H         1 <0>         0.1379
     40 H13         7.7258    3.3274   -4.1499 H         1 <0>         0.1400
     41 H14         4.9053    3.2903   -5.1454 H         1 <0>         0.3985
     42 H15         9.4474    4.0519   -3.4273 H         1 <0>         0.1653
     43 H16        11.5599    4.4443   -1.9277 H         1 <0>         0.1408
     44 H17        11.4206    2.7276    0.1351 H         1 <0>         0.1414
     45 H18         9.2214    1.3310   -0.1454 H         1 <0>         0.1674
@<TRIPOS>BOND
     1    1    2 1
     2    1   28 1
     3    1   29 1
     4    1   30 1
     5    2    3 2
     6    2    4 2
     7    2    5 1
     8    5    6 1
     9    6   11 ar
    10    6    7 ar
    11    7    8 ar
    12    7   31 1
    13    8    9 ar
    14    8   32 1
    15    9   10 ar
    16    9   33 1
    17   10   11 ar
    18   10   34 1
    19   11   12 1
    20   12   13 1
    21   12   35 1
    22   12   36 1
    23   13   14 am
    24   13   37 1
    25   14   15 2
    26   14   16 1
    27   16   21 ar
    28   16   17 ar
    29   17   18 ar
    30   17   38 1
    31   18   19 ar
    32   18   39 1
    33   19   20 ar
    34   19   23 1
    35   20   21 ar
    36   20   40 1
    37   21   22 1
    38   22   41 1
    39   23   27 1
    40   23   24 1
    41   24   25 2
    42   24   42 1
    43   25   26 1
    44   25   43 1
    45   26   27 2
    46   26   44 1
    47   27   45 1
@<TRIPOS>MOLECULE
ZINC13234276
   58    61     0     0     0
SMALL
USER_CHARGES
(2S)-2-[2-[2-[[(3S)-2,3-dihydro-1,4-benzodioxin-3-yl]methylamino]-2-oxo-ethyl]sulfanyl-4-oxo-quinazolin-3-yl]-3-methyl-butanoic acid
@<TRIPOS>ATOM
      1 C1         -8.6751    7.7094    2.7679 C.3       1 <0>        -0.1476
      2 C2         -9.2572    8.7278    1.7855 C.3       1 <0>        -0.0878
      3 C3         -9.4554   10.0675    2.4975 C.3       1 <0>        -0.1377
      4 C4         -8.2939    8.9119    0.6113 C.3       1 <0>         0.0801
      5 H1         -8.2268    7.9818    0.0470 H         1 <0>         0.0999
      6 C5         -8.8019   10.0094   -0.2879 C.2       1 <0>         0.4732
      7 O1         -8.1255   10.9912   -0.4841 O.co2     1 <0>        -0.6067
      8 N1         -6.9677    9.2715    1.1194 N.am      1 <0>        -0.4951
      9 C6         -6.7669   10.4916    1.6698 C.2       1 <0>         0.5455
     10 O2         -7.6701   11.3035    1.7523 O.2       1 <0>        -0.4469
     11 C7         -5.4164   10.8015    2.1581 C.ar      1 <0>        -0.1934
     12 C8         -5.1063   12.0318    2.7360 C.ar      1 <0>        -0.0357
     13 C9         -3.8327   12.2682    3.1746 C.ar      1 <0>        -0.1557
     14 C10        -2.8474   11.2971    3.0503 C.ar      1 <0>        -0.0795
     15 C11        -3.1237   10.0831    2.4876 C.ar      1 <0>        -0.1243
     16 C12        -4.4163    9.8108    2.0295 C.ar      1 <0>         0.1744
     17 N2         -4.7324    8.6264    1.4684 N.2       1 <0>        -0.5614
     18 C13        -5.9438    8.3712    1.0396 C.2       1 <0>         0.3709
     19 S1         -6.2653    6.7954    0.3198 S.3       1 <0>         0.0766
     20 C14        -4.6242    6.0449    0.4603 C.3       1 <0>        -0.1559
     21 C15        -4.6592    4.6502   -0.1095 C.2       1 <0>         0.5355
     22 O3         -5.6919    4.2072   -0.5657 O.2       1 <0>        -0.5192
     23 N3         -3.5428    3.8952   -0.1121 N.am      1 <0>        -0.7223
     24 C16        -3.5768    2.5394   -0.6661 C.3       1 <0>         0.1323
     25 C17        -2.1895    1.9050   -0.5473 C.3       1 <0>         0.0394
     26 H2         -1.8904    1.8690    0.5003 H         1 <0>         0.0950
     27 C18        -2.2190    0.4840   -1.1262 C.3       1 <0>         0.0301
     28 O4         -0.9052   -0.0736   -1.0124 O.3       1 <0>        -0.3038
     29 C19         0.1310    0.7185   -1.4012 C.ar      1 <0>         0.0470
     30 C20         1.3667    0.1444   -1.6608 C.ar      1 <0>        -0.1140
     31 C21         2.4298    0.9364   -2.0510 C.ar      1 <0>        -0.1163
     32 C22         2.2651    2.3027   -2.1833 C.ar      1 <0>        -0.1149
     33 C23         1.0365    2.8810   -1.9264 C.ar      1 <0>        -0.1121
     34 C24        -0.0352    2.0916   -1.5364 C.ar      1 <0>         0.0526
     35 O5         -1.2416    2.6742   -1.2959 O.3       1 <0>        -0.3001
     36 H3         -8.5339    6.7550    2.2607 H         1 <0>         0.0594
     37 H4         -7.7153    8.0695    3.1383 H         1 <0>         0.0419
     38 H5         -9.3614    7.5782    3.6045 H         1 <0>         0.0563
     39 H6        -10.2170    8.3677    1.4151 H         1 <0>         0.0944
     40 H7         -9.6496   10.8458    1.7596 H         1 <0>         0.0826
     41 H8        -10.3022    9.9944    3.1800 H         1 <0>         0.0332
     42 H9         -8.5557   10.3165    3.0601 H         1 <0>         0.0528
     43 H10        -5.8664   12.7924    2.8368 H         1 <0>         0.1335
     44 H11        -3.5903   13.2207    3.6222 H         1 <0>         0.1251
     45 H12        -1.8481   11.5048    3.4033 H         1 <0>         0.1252
     46 H13        -2.3476    9.3375    2.3974 H         1 <0>         0.1306
     47 H14        -4.3333    6.0014    1.5099 H         1 <0>         0.1287
     48 H15        -3.9017    6.6452   -0.0925 H         1 <0>         0.1293
     49 H16        -2.7168    4.2495    0.2527 H         1 <0>         0.4086
     50 H17        -3.8677    2.5829   -1.7156 H         1 <0>         0.0851
     51 H18        -4.2994    1.9390   -0.1133 H         1 <0>         0.0970
     52 H19        -2.5133    0.5204   -2.1751 H         1 <0>         0.0836
     53 H20        -2.9273   -0.1265   -0.5660 H         1 <0>         0.1278
     54 H21         1.4980   -0.9227   -1.5583 H         1 <0>         0.1342
     55 H22         3.3910    0.4872   -2.2532 H         1 <0>         0.1321
     56 H23         3.0979    2.9191   -2.4881 H         1 <0>         0.1328
     57 H24         0.9105    3.9486   -2.0304 H         1 <0>         0.1361
     58 O6        -10.0057    9.8963   -0.8707 O.co2     1 <0>        -0.7524
@<TRIPOS>BOND
     1    1    2 1
     2    1   36 1
     3    1   37 1
     4    1   38 1
     5    2    3 1
     6    2    4 1
     7    2   39 1
     8    3   40 1
     9    3   41 1
    10    3   42 1
    11    4    5 1
    12    4    6 1
    13    4    8 1
    14    6    7 2
    15    6   58 1
    16    8   18 1
    17    8    9 am
    18    9   10 2
    19    9   11 1
    20   11   16 ar
    21   11   12 ar
    22   12   13 ar
    23   12   43 1
    24   13   14 ar
    25   13   44 1
    26   14   15 ar
    27   14   45 1
    28   15   16 ar
    29   15   46 1
    30   16   17 1
    31   17   18 2
    32   18   19 1
    33   19   20 1
    34   20   21 1
    35   20   47 1
    36   20   48 1
    37   21   22 2
    38   21   23 am
    39   23   24 1
    40   23   49 1
    41   24   25 1
    42   24   50 1
    43   24   51 1
    44   25   26 1
    45   25   35 1
    46   25   27 1
    47   27   28 1
    48   27   52 1
    49   27   53 1
    50   28   29 1
    51   29   34 ar
    52   29   30 ar
    53   30   31 ar
    54   30   54 1
    55   31   32 ar
    56   31   55 1
    57   32   33 ar
    58   32   56 1
    59   33   34 ar
    60   33   57 1
    61   34   35 1
@<TRIPOS>MOLECULE
ZINC13431117
   56    59     0     0     0
SMALL
USER_CHARGES
7-[[3-(allyl-phenyl-sulfamoyl)benzoyl]amino]-2,3-dihydro-1,4-benzodioxine-6-carboxylic acid
@<TRIPOS>ATOM
      1 C1        -10.1551    1.8910   -2.2748 C.2       1 <0>        -0.1716
      2 C2         -9.2166    1.6497   -1.3932 C.2       1 <0>        -0.1733
      3 C3         -7.8166    1.3315   -1.8511 C.3       1 <0>         0.1484
      4 N1         -6.8737    2.2577   -1.2190 N.pl3     1 <0>        -0.9432
      5 C4         -6.6333    3.5086   -1.7919 C.ar      1 <0>         0.1362
      6 C5         -6.1056    3.5973   -3.0739 C.ar      1 <0>        -0.1164
      7 C6         -5.8735    4.8358   -3.6392 C.ar      1 <0>        -0.1100
      8 C7         -6.1560    5.9867   -2.9266 C.ar      1 <0>        -0.1157
      9 C8         -6.6764    5.9020   -1.6482 C.ar      1 <0>        -0.1069
     10 C9         -6.9159    4.6668   -1.0789 C.ar      1 <0>        -0.1017
     11 S1         -6.0931    1.8215    0.1748 S.o2      1 <0>         2.6834
     12 O1         -6.9607    0.9327    0.8651 O.2       1 <0>        -0.9466
     13 O2         -5.6081    3.0215    0.7613 O.2       1 <0>        -0.9387
     14 C10        -4.6779    0.8818   -0.2929 C.ar      1 <0>        -0.6908
     15 C11        -4.7748   -0.4921   -0.4266 C.ar      1 <0>        -0.0035
     16 C12        -3.6686   -1.2373   -0.7939 C.ar      1 <0>        -0.1426
     17 C13        -2.4617   -0.6136   -1.0346 C.ar      1 <0>        -0.0182
     18 C14        -2.3557    0.7713   -0.8964 C.ar      1 <0>        -0.1426
     19 C15        -3.4760    1.5174   -0.5254 C.ar      1 <0>         0.0418
     20 C16        -1.0647    1.4457   -1.1476 C.2       1 <0>         0.5542
     21 O3         -0.9767    2.6525   -1.0314 O.2       1 <0>        -0.5274
     22 N2          0.0148    0.7226   -1.5056 N.am      1 <0>        -0.6353
     23 C17         1.2547    1.3431   -1.6423 C.ar      1 <0>         0.1753
     24 C18         1.3519    2.5701   -2.2791 C.ar      1 <0>        -0.1245
     25 C19         2.5846    3.1921   -2.4123 C.ar      1 <0>         0.0638
     26 C20         3.7353    2.5817   -1.9131 C.ar      1 <0>         0.0224
     27 C21         3.6515    1.3568   -1.2818 C.ar      1 <0>        -0.0534
     28 C22         2.4112    0.7247   -1.1406 C.ar      1 <0>        -0.1291
     29 C23         2.3194   -0.5816   -0.4702 C.2       1 <0>         0.5009
     30 O4          1.2482   -1.1506   -0.3920 O.co2     1 <0>        -0.6334
     31 O5          4.9515    3.1831   -2.0375 O.3       1 <0>        -0.3069
     32 C24         5.0530    4.2359   -3.0022 C.3       1 <0>         0.0210
     33 C25         3.8436    5.1646   -2.8290 C.3       1 <0>         0.0214
     34 O6          2.6545    4.3962   -3.0402 O.3       1 <0>        -0.3073
     35 H1        -11.1585    2.1190   -1.9466 H         1 <0>         0.1008
     36 H2         -9.9255    1.8618   -3.3297 H         1 <0>         0.0979
     37 H3         -9.4463    1.6788   -0.3383 H         1 <0>         0.1171
     38 H4         -7.7563    1.4349   -2.9345 H         1 <0>         0.0899
     39 H5         -7.5656    0.3090   -1.5692 H         1 <0>         0.0940
     40 H6         -5.8806    2.6988   -3.6292 H         1 <0>         0.1266
     41 H7         -5.4671    4.9055   -4.6374 H         1 <0>         0.1268
     42 H8         -5.9700    6.9540   -3.3696 H         1 <0>         0.1249
     43 H9         -6.8962    6.8029   -1.0945 H         1 <0>         0.1280
     44 H10        -7.3220    4.6013   -0.0803 H         1 <0>         0.1275
     45 H11        -5.7183   -0.9848   -0.2438 H         1 <0>         0.1430
     46 H12        -3.7511   -2.3093   -0.8969 H         1 <0>         0.1429
     47 H13        -1.5999   -1.1960   -1.3254 H         1 <0>         0.1476
     48 H14        -3.4016    2.5897   -0.4204 H         1 <0>         0.1526
     49 H15        -0.0722   -0.2290   -1.6720 H         1 <0>         0.4230
     50 H16         0.4642    3.0455   -2.6695 H         1 <0>         0.1408
     51 H17         4.5440    0.8859   -0.8969 H         1 <0>         0.1486
     52 H18         5.9734    4.7966   -2.8390 H         1 <0>         0.1163
     53 H19         5.0527    3.8146   -4.0075 H         1 <0>         0.0730
     54 H20         3.8395    5.5786   -1.8207 H         1 <0>         0.0747
     55 H21         3.8934    5.9729   -3.5586 H         1 <0>         0.1167
     56 O7          3.4232   -1.1475    0.0574 O.co2     1 <0>        -0.7422
@<TRIPOS>BOND
     1    1    2 2
     2    1   35 1
     3    1   36 1
     4    2    3 1
     5    2   37 1
     6    3    4 1
     7    3   38 1
     8    3   39 1
     9    4    5 1
    10    4   11 1
    11    5   10 ar
    12    5    6 ar
    13    6    7 ar
    14    6   40 1
    15    7    8 ar
    16    7   41 1
    17    8    9 ar
    18    8   42 1
    19    9   10 ar
    20    9   43 1
    21   10   44 1
    22   11   12 2
    23   11   13 2
    24   11   14 1
    25   14   19 ar
    26   14   15 ar
    27   15   16 ar
    28   15   45 1
    29   16   17 ar
    30   16   46 1
    31   17   18 ar
    32   17   47 1
    33   18   19 ar
    34   18   20 1
    35   19   48 1
    36   20   21 2
    37   20   22 am
    38   22   23 1
    39   22   49 1
    40   23   28 ar
    41   23   24 ar
    42   24   25 ar
    43   24   50 1
    44   25   34 1
    45   25   26 ar
    46   26   27 ar
    47   26   31 1
    48   27   28 ar
    49   27   51 1
    50   28   29 1
    51   29   30 2
    52   29   56 1
    53   31   32 1
    54   32   33 1
    55   32   52 1
    56   32   53 1
    57   33   34 1
    58   33   54 1
    59   33   55 1
@<TRIPOS>MOLECULE
ZINC36050235
   59    62     0     0     0
SMALL
USER_CHARGES

@<TRIPOS>ATOM
      1 C1          0.0158    1.3288    0.3817 C.3       1 <0>        -0.1489
      2 C2          0.1541   -0.1939    0.3263 C.3       1 <0>         0.0660
      3 O1          0.7209   -0.5755   -0.9288 O.3       1 <0>        -0.3510
      4 C3          0.9109   -1.8967   -1.1399 C.2       1 <0>         0.5371
      5 O2          0.6022   -2.7020   -0.2787 O.2       1 <0>        -0.5483
      6 C4          1.4622   -2.3404   -2.3480 C.2       1 <0>        -0.3960
      7 C5          1.8011   -3.6670   -2.5334 C.2       1 <0>         0.3058
      8 N1          2.3213   -4.0722   -3.6804 N.2       1 <0>        -0.5944
      9 C6          2.5586   -3.2923   -4.7150 C.2       1 <0>         0.3211
     10 N2          2.2949   -1.9513   -4.7357 N.pl3     1 <0>        -0.5154
     11 C7          1.7007   -1.3847   -3.4957 C.3       1 <0>         0.3047
     12 H1          0.7458   -0.9278   -3.7558 H         1 <0>         0.0851
     13 C8          2.6146   -0.2910   -3.0064 C.2       1 <0>        -0.1118
     14 C9          2.3212    0.9998   -2.7147 C.2       1 <0>        -0.1345
     15 C10         3.3318    1.8342   -2.2753 C.2       1 <0>        -0.1459
     16 C11         4.5865    1.3370   -2.1491 C.2       1 <0>        -0.1924
     17 S1          4.3631   -0.3611   -2.6529 S.3       1 <0>         0.0378
     18 C12         2.6002   -1.2702   -5.8973 C.2       1 <0>         0.2307
     19 C13         3.1329   -1.9783   -6.9176 C.2       1 <0>        -0.3032
     20 S2          3.2035   -3.6202   -6.2295 S.3       1 <0>         0.1465
     21 C14         2.3541    0.1738   -6.0200 C.2       1 <0>        -0.4649
     22 C15         2.7760    0.8384   -7.1128 C.2       1 <0>         0.5040
     23 O3          3.3267    0.1593   -8.1484 O.3       1 <0>        -0.7010
     24 N3          2.6470    2.2155   -7.1784 N.pl3     1 <0>        -0.7556
     25 C16         3.1059    2.9384   -8.3671 C.3       1 <0>         0.1465
     26 C17         2.8496    4.4356   -8.1840 C.3       1 <0>         0.0464
     27 N4          3.3097    5.1605   -9.3760 N.3       1 <0>        -0.5324
     28 C18         2.4957    4.8141  -10.5502 C.3       1 <0>         0.0127
     29 C19         3.0454    5.5438  -11.7787 C.3       1 <0>         0.0639
     30 O4          3.0581    6.9512  -11.5249 O.3       1 <0>        -0.3887
     31 C20         3.8422    7.3242  -10.3884 C.3       1 <0>         0.0644
     32 C21         3.3006    6.6125   -9.1458 C.3       1 <0>         0.0180
     33 C22         1.5772   -4.6591   -1.4213 C.3       1 <0>        -0.1069
     34 H2          0.9987    1.7871    0.2726 H         1 <0>         0.0644
     35 H3         -0.6333    1.6643   -0.4271 H         1 <0>         0.0623
     36 H4         -0.4165    1.6198    1.3390 H         1 <0>         0.0706
     37 H5          0.8032   -0.5295    1.1351 H         1 <0>         0.0579
     38 H6         -0.8288   -0.6523    0.4354 H         1 <0>         0.0580
     39 H7          1.3129    1.3709   -2.8243 H         1 <0>         0.1252
     40 H8          3.1249    2.8670   -2.0365 H         1 <0>         0.1240
     41 H9          5.4868    1.8372   -1.8241 H         1 <0>         0.1765
     42 H10         3.4367   -1.6374   -7.8963 H         1 <0>         0.2382
     43 H11         1.8350    0.7018   -5.2337 H         1 <0>         0.0873
     44 H12         2.2528    2.7015   -6.4372 H         1 <0>         0.3836
     45 H13         4.1731    2.7669   -8.5072 H         1 <0>         0.0597
     46 H14         2.5626    2.5811   -9.2419 H         1 <0>         0.0502
     47 H15         1.7824    4.6071   -8.0439 H         1 <0>         0.0360
     48 H16         3.3929    4.7929   -7.3092 H         1 <0>         0.0772
     49 H17         2.5374    3.7378  -10.7172 H         1 <0>         0.0950
     50 H18         1.4627    5.1168  -10.3790 H         1 <0>         0.0419
     51 H19         4.0600    5.2014  -11.9817 H         1 <0>         0.0613
     52 H20         2.4109    5.3351  -12.6401 H         1 <0>         0.0979
     53 H21         4.8800    7.0335  -10.5510 H         1 <0>         0.0601
     54 H22         3.7840    8.4030  -10.2443 H         1 <0>         0.0960
     55 H23         2.2804    6.9439   -8.9522 H         1 <0>         0.0411
     56 H24         3.9298    6.8489   -8.2877 H         1 <0>         0.0855
     57 H25         0.5485   -5.0176   -1.4559 H         1 <0>         0.0829
     58 H26         2.2595   -5.5005   -1.5421 H         1 <0>         0.0652
     59 H27         1.7617   -4.1767   -0.4614 H         1 <0>         0.1026
@<TRIPOS>BOND
     1    1    2 1
     2    1   34 1
     3    1   35 1
     4    1   36 1
     5    2    3 1
     6    2   37 1
     7    2   38 1
     8    3    4 1
     9    4    5 2
    10    4    6 1
    11    6   11 1
    12    6    7 2
    13    7    8 1
    14    7   33 1
    15    8    9 2
    16    9   20 1
    17    9   10 1
    18   10   11 1
    19   10   18 1
    20   11   12 1
    21   11   13 1
    22   13   17 1
    23   13   14 2
    24   14   15 1
    25   14   39 1
    26   15   16 2
    27   15   40 1
    28   16   17 1
    29   16   41 1
    30   18   19 2
    31   18   21 1
    32   19   20 1
    33   19   42 1
    34   21   22 2
    35   21   43 1
    36   22   23 1
    37   22   24 1
    38   24   25 1
    39   24   44 1
    40   25   26 1
    41   25   45 1
    42   25   46 1
    43   26   27 1
    44   26   47 1
    45   26   48 1
    46   27   32 1
    47   27   28 1
    48   28   29 1
    49   28   49 1
    50   28   50 1
    51   29   30 1
    52   29   51 1
    53   29   52 1
    54   30   31 1
    55   31   32 1
    56   31   53 1
    57   31   54 1
    58   32   55 1
    59   32   56 1
    60   33   57 1
    61   33   58 1
    62   33   59 1
@<TRIPOS>MOLECULE
ZINC40096413
   53    56     0     0     0
SMALL
USER_CHARGES

@<TRIPOS>ATOM
      1 C1         -1.6366   -1.4837    2.1847 C.ar      1 <0>        -0.0426
      2 C2         -1.1225   -2.1383    3.2818 C.ar      1 <0>        -0.1322
      3 C3         -0.0465   -3.0070    3.1391 C.ar      1 <0>         0.0639
      4 C4          0.5161   -3.2206    1.8820 C.ar      1 <0>         0.0278
      5 C5          0.0060   -2.5657    0.7771 C.ar      1 <0>        -0.0648
      6 C6         -1.0754   -1.6916    0.9216 C.ar      1 <0>        -0.1279
      7 C7         -1.6234   -0.9910   -0.2564 C.2       1 <0>         0.5214
      8 O1         -1.0711   -1.0923   -1.3362 O.2       1 <0>        -0.4746
      9 C8         -2.8333   -0.1729   -0.1257 C.2       1 <0>        -0.5009
     10 C9         -4.1056   -0.6235   -0.0277 C.2       1 <0>         0.2582
     11 C10        -5.0219    0.5303    0.0874 C.2       1 <0>         0.5114
     12 O2         -6.2300    0.4537    0.1910 O.2       1 <0>        -0.5368
     13 N1         -4.3205    1.6782    0.0605 N.am      1 <0>        -0.6077
     14 C11        -2.8993    1.3355   -0.0678 C.3       1 <0>         0.2681
     15 H1         -2.3435    1.7020    0.7953 H         1 <0>         0.0912
     16 C12        -2.3391    1.9276   -1.3353 C.ar      1 <0>        -0.0454
     17 C13        -3.1818    2.2269   -2.3895 C.ar      1 <0>        -0.0860
     18 C14        -2.6689    2.7700   -3.5522 C.ar      1 <0>        -0.1054
     19 C15        -1.3113    3.0149   -3.6616 C.ar      1 <0>        -0.0347
     20 C16        -0.4678    2.7161   -2.6071 C.ar      1 <0>        -0.1009
     21 C17        -0.9825    2.1769   -1.4416 C.ar      1 <0>        -0.0078
     22 Cl1         0.0746    1.8071   -0.1152 Cl        1 <0>        -0.0563
     23 Cl2        -0.6671    3.6966   -5.1225 Cl        1 <0>        -0.0754
     24 C18        -4.8766    3.0306    0.1500 C.3       1 <0>         0.1359
     25 C19        -4.9437    3.4583    1.6175 C.3       1 <0>         0.0444
     26 O3         -3.6196    3.5583    2.1455 O.3       1 <0>        -0.3686
     27 C20        -3.5695    3.9538    3.5178 C.3       1 <0>         0.0626
     28 C21        -2.1110    4.0276    3.9742 C.3       1 <0>         0.0782
     29 O4         -1.4394    5.0652    3.2570 O.3       1 <0>        -0.5642
     30 O5         -4.4794   -1.9238   -0.0346 O.3       1 <0>        -0.6580
     31 O6          1.5650   -4.0741    1.7248 O.3       1 <0>        -0.3077
     32 C22         2.2887   -4.4287    2.9081 C.3       1 <0>         0.0213
     33 C23         1.2741   -4.7839    4.0034 C.3       1 <0>         0.0202
     34 O7          0.4468   -3.6393    4.2368 O.3       1 <0>        -0.3083
     35 H2         -2.4758   -0.8137    2.2994 H         1 <0>         0.1429
     36 H3         -1.5568   -1.9759    4.2572 H         1 <0>         0.1340
     37 H4          0.4426   -2.7288   -0.1971 H         1 <0>         0.1402
     38 H5         -4.2414    2.0360   -2.3046 H         1 <0>         0.1356
     39 H6         -3.3276    3.0030   -4.3757 H         1 <0>         0.1337
     40 H7          0.5918    2.9071   -2.6921 H         1 <0>         0.1378
     41 H8         -4.2399    3.7224   -0.4014 H         1 <0>         0.0848
     42 H9         -5.8793    3.0402   -0.2775 H         1 <0>         0.0953
     43 H10        -5.4384    4.4268    1.6914 H         1 <0>         0.0554
     44 H11        -5.5068    2.7183    2.1862 H         1 <0>         0.0542
     45 H12        -4.0357    4.9325    3.6311 H         1 <0>         0.0513
     46 H13        -4.1040    3.2241    4.1260 H         1 <0>         0.0608
     47 H14        -2.0750    4.2422    5.0423 H         1 <0>         0.0559
     48 H15        -1.6203    3.0742    3.7785 H         1 <0>         0.0573
     49 H16        -0.5081    5.1692    3.4959 H         1 <0>         0.3762
     50 H17         2.9266   -5.2889    2.7050 H         1 <0>         0.1178
     51 H18         2.8993   -3.5859    3.2320 H         1 <0>         0.0738
     52 H19         0.6584   -5.6217    3.6762 H         1 <0>         0.0764
     53 H20         1.8007   -5.0499    4.9199 H         1 <0>         0.1181
@<TRIPOS>BOND
     1    1    6 ar
     2    1    2 ar
     3    1   35 1
     4    2    3 ar
     5    2   36 1
     6    3   34 1
     7    3    4 ar
     8    4    5 ar
     9    4   31 1
    10    5    6 ar
    11    5   37 1
    12    6    7 1
    13    7    8 2
    14    7    9 1
    15    9   14 1
    16    9   10 2
    17   10   11 1
    18   10   30 1
    19   11   12 2
    20   11   13 am
    21   13   14 1
    22   13   24 1
    23   14   15 1
    24   14   16 1
    25   16   21 ar
    26   16   17 ar
    27   17   18 ar
    28   17   38 1
    29   18   19 ar
    30   18   39 1
    31   19   20 ar
    32   19   23 1
    33   20   21 ar
    34   20   40 1
    35   21   22 1
    36   24   25 1
    37   24   41 1
    38   24   42 1
    39   25   26 1
    40   25   43 1
    41   25   44 1
    42   26   27 1
    43   27   28 1
    44   27   45 1
    45   27   46 1
    46   28   29 1
    47   28   47 1
    48   28   48 1
    49   29   49 1
    50   31   32 1
    51   32   33 1
    52   32   50 1
    53   32   51 1
    54   33   34 1
    55   33   52 1
    56   33   53 1
@<TRIPOS>MOLECULE
ZINC45899452
   66    69     0     0     0
SMALL
USER_CHARGES

@<TRIPOS>ATOM
      1 C1          1.8110    0.9801   -1.9184 C.3       1 <0>        -0.1156
      2 C2          1.3891   -0.3527   -1.3556 C.ar      1 <0>        -0.0858
      3 C3          1.0447   -1.3851   -2.2080 C.ar      1 <0>        -0.1189
      4 C4          0.6578   -2.6076   -1.6918 C.ar      1 <0>        -0.1016
      5 C5          0.6157   -2.7980   -0.3233 C.ar      1 <0>        -0.0998
      6 C6          0.9610   -1.7660    0.5291 C.ar      1 <0>        -0.1007
      7 C7          1.3521   -0.5447    0.0128 C.ar      1 <0>        -0.1186
      8 C8          0.1929   -4.1305    0.2395 C.3       1 <0>         0.1868
      9 H1          0.3029   -4.8993   -0.5253 H         1 <0>         0.1097
     10 C9         -1.2700   -4.0565    0.6815 C.3       1 <0>         0.0507
     11 N1         -1.6501   -5.3188    1.3297 N.3       1 <0>        -0.5271
     12 C10        -1.7492   -6.4071    0.3464 C.3       1 <0>         0.0157
     13 C11        -2.0879   -7.7127    1.0706 C.3       1 <0>         0.0648
     14 O1         -3.2989   -7.5407    1.8116 O.3       1 <0>        -0.3878
     15 C12        -3.2375   -6.4891    2.7790 C.3       1 <0>         0.0635
     16 C13        -2.9105   -5.1711    2.0721 C.3       1 <0>         0.0203
     17 N2          1.0348   -4.4635    1.3912 N.am      1 <0>        -0.7055
     18 C14         1.7776   -5.5881    1.3803 C.2       1 <0>         0.5739
     19 O2          1.6798   -6.3719    0.4568 O.2       1 <0>        -0.5352
     20 C15         2.7129   -5.8684    2.4934 C.ar      1 <0>        -0.0878
     21 C16         2.8173   -4.9643    3.5579 C.ar      1 <0>        -0.1552
     22 C17         3.6737   -5.2056    4.5936 C.ar      1 <0>        -0.0301
     23 C18         4.4533   -6.3618    4.5952 C.ar      1 <0>        -0.2236
     24 C19         4.3601   -7.2843    3.5288 C.ar      1 <0>         0.1996
     25 C20         3.4758   -7.0286    2.4769 C.ar      1 <0>        -0.0698
     26 N3          5.1272   -8.3995    3.5520 N.2       1 <0>        -0.5595
     27 C21         5.9534   -8.6433    4.5392 C.2       1 <0>         0.5337
     28 S1          6.9136  -10.1197    4.4859 S.3       1 <0>        -0.7605
     29 N4          6.1053   -7.8061    5.6073 N.am      1 <0>        -0.5355
     30 C22         5.3894   -6.6611    5.6905 C.2       1 <0>         0.5486
     31 O3          5.5153   -5.9059    6.6366 O.2       1 <0>        -0.5380
     32 C23         7.0507   -8.1508    6.6719 C.3       1 <0>         0.1045
     33 C24         8.4257   -7.5666    6.3418 C.3       1 <0>        -0.1250
     34 C25         9.4131   -7.9266    7.4537 C.3       1 <0>         0.0718
     35 O4         10.6974   -7.3809    7.1454 O.3       1 <0>        -0.3915
     36 C26        11.6985   -7.6610    8.1259 C.3       1 <0>         0.0328
     37 H2          2.8901    0.9845   -2.0720 H         1 <0>         0.0708
     38 H3          1.3077    1.1482   -2.8705 H         1 <0>         0.0653
     39 H4          1.5402    1.7716   -1.2196 H         1 <0>         0.0656
     40 H5          1.0775   -1.2363   -3.2772 H         1 <0>         0.1219
     41 H6          0.3880   -3.4140   -2.3577 H         1 <0>         0.1229
     42 H7          0.9278   -1.9146    1.5983 H         1 <0>         0.1198
     43 H8          1.6254    0.2605    0.6787 H         1 <0>         0.1222
     44 H9         -1.3955   -3.2341    1.3858 H         1 <0>         0.0796
     45 H10        -1.9045   -3.8895   -0.1889 H         1 <0>         0.0482
     46 H11        -2.5339   -6.1763   -0.3741 H         1 <0>         0.0387
     47 H12        -0.7973   -6.5156   -0.1736 H         1 <0>         0.0976
     48 H13        -2.2186   -8.5109    0.3399 H         1 <0>         0.0975
     49 H14        -1.2777   -7.9715    1.7523 H         1 <0>         0.0632
     50 H15        -4.1996   -6.4024    3.2838 H         1 <0>         0.0952
     51 H16        -2.4608   -6.7124    3.5104 H         1 <0>         0.0607
     52 H17        -2.8063   -4.3774    2.8119 H         1 <0>         0.0843
     53 H18        -3.7138   -4.9206    1.3792 H         1 <0>         0.0401
     54 H19         1.0577   -3.8747    2.1617 H         1 <0>         0.3990
     55 H20         2.2151   -4.0677    3.5595 H         1 <0>         0.1194
     56 H21         3.7474   -4.5022    5.4098 H         1 <0>         0.1303
     57 H22         3.3896   -7.7255    1.6564 H         1 <0>         0.1439
     58 H23         6.6986   -7.7392    7.6178 H         1 <0>         0.0806
     59 H24         7.1267   -9.2351    6.7533 H         1 <0>         0.1170
     60 H25         8.7778   -7.9781    5.3959 H         1 <0>         0.0860
     61 H26         8.3497   -6.4823    6.2604 H         1 <0>         0.0640
     62 H27         9.0610   -7.5150    8.3996 H         1 <0>         0.0466
     63 H28         9.4891   -9.0109    7.5351 H         1 <0>         0.0559
     64 H29        12.6435   -7.2130    7.8185 H         1 <0>         0.0820
     65 H30        11.3938   -7.2439    9.0857 H         1 <0>         0.0379
     66 H31        11.8219   -8.7398    8.2212 H         1 <0>         0.0405
@<TRIPOS>BOND
     1    1    2 1
     2    1   37 1
     3    1   38 1
     4    1   39 1
     5    2    7 ar
     6    2    3 ar
     7    3    4 ar
     8    3   40 1
     9    4    5 ar
    10    4   41 1
    11    5    6 ar
    12    5    8 1
    13    6    7 ar
    14    6   42 1
    15    7   43 1
    16    8    9 1
    17    8   10 1
    18    8   17 1
    19   10   11 1
    20   10   44 1
    21   10   45 1
    22   11   16 1
    23   11   12 1
    24   12   13 1
    25   12   46 1
    26   12   47 1
    27   13   14 1
    28   13   48 1
    29   13   49 1
    30   14   15 1
    31   15   16 1
    32   15   50 1
    33   15   51 1
    34   16   52 1
    35   16   53 1
    36   17   18 am
    37   17   54 1
    38   18   19 2
    39   18   20 1
    40   20   25 ar
    41   20   21 ar
    42   21   22 ar
    43   21   55 1
    44   22   23 ar
    45   22   56 1
    46   23   30 1
    47   23   24 ar
    48   24   25 ar
    49   24   26 1
    50   25   57 1
    51   26   27 2
    52   27   28 1
    53   27   29 1
    54   29   30 am
    55   29   32 1
    56   30   31 2
    57   32   33 1
    58   32   58 1
    59   32   59 1
    60   33   34 1
    61   33   60 1
    62   33   61 1
    63   34   35 1
    64   34   62 1
    65   34   63 1
    66   35   36 1
    67   36   64 1
    68   36   65 1
    69   36   66 1
@<TRIPOS>MOLECULE
ZINC20437735
   52    54     0     0     0
SMALL
USER_CHARGES
N-[2-[2-[(Z)-(4,6-dioxo-1-sec-butyl-2-thioxo-hexahydropyrimidin-5-ylidene)methyl]-1H-indol-3-yl]ethyl]acetamide
@<TRIPOS>ATOM
      1 C1         -5.4146   -1.5643    1.4743 C.3       1 <0>        -0.1459
      2 C2         -4.6497   -0.9625    0.2938 C.3       1 <0>        -0.1304
      3 C3         -3.2389   -0.5771    0.7434 C.3       1 <0>         0.1001
      4 H1         -2.7369   -1.4322    1.2197 H         1 <0>         0.1503
      5 C4         -2.4362   -0.0842   -0.4623 C.3       1 <0>        -0.1609
      6 N1         -3.3198    0.4890    1.7450 N.am      1 <0>        -0.5329
      7 C5         -3.8784    1.6695    1.4072 C.2       1 <0>         0.5516
      8 O1         -4.3127    1.8573    0.2864 O.2       1 <0>        -0.5039
      9 C6         -3.9478    2.7265    2.4336 C.2       1 <0>        -0.2733
     10 C7         -4.5072    3.9654    2.1602 C.2       1 <0>         0.0634
     11 C8         -4.8728    4.2979    0.8397 C.2       1 <0>         0.0861
     12 C9         -6.0240    4.9594    0.4676 C.2       1 <0>        -0.1276
     13 C10        -6.0021    5.0932   -0.9384 C.ar      1 <0>        -0.1051
     14 C11        -6.8868    5.6702   -1.8619 C.ar      1 <0>        -0.0681
     15 C12        -6.5920    5.6407   -3.1932 C.ar      1 <0>        -0.1535
     16 C13        -5.4210    5.0445   -3.6458 C.ar      1 <0>        -0.1002
     17 C14        -4.5361    4.4718   -2.7597 C.ar      1 <0>        -0.1266
     18 C15        -4.8134    4.4878   -1.3955 C.ar      1 <0>         0.1293
     19 N2         -4.1384    4.0088   -0.2969 N.pl3     1 <0>        -0.5447
     20 H2         -3.1801    3.4755   -0.2117 H         1 <0>         0.4441
     21 C16        -7.1066    5.4526    1.3926 C.3       1 <0>        -0.0588
     22 C17        -6.7886    6.8830    1.8328 C.3       1 <0>         0.1251
     23 N3         -7.8411    7.3625    2.7321 N.am      1 <0>        -0.7419
     24 C18        -7.7714    8.6054    3.2487 C.2       1 <0>         0.5083
     25 O2         -6.8375    9.3269    2.9691 O.2       1 <0>        -0.5522
     26 C19        -8.8540    9.0987    4.1737 C.3       1 <0>        -0.1759
     27 C20        -3.3953    2.4076    3.7636 C.2       1 <0>         0.5301
     28 O3         -3.4158    3.2279    4.6619 O.3       1 <0>        -0.5166
     29 N4         -2.8664    1.1818    3.9567 N.2       1 <0>        -0.6270
     30 C21        -2.8419    0.2669    2.9774 C.2       1 <0>         0.5447
     31 S1         -2.1573   -1.2651    3.3170 S.2       1 <0>        -0.6904
     32 H3         -6.4289   -1.8414    1.1510 H         1 <0>         0.0464
     33 H4         -5.4777   -0.8244    2.2858 H         1 <0>         0.0442
     34 H5         -4.8872   -2.4598    1.8347 H         1 <0>         0.0641
     35 H6         -4.5866   -1.7024   -0.5177 H         1 <0>         0.0706
     36 H7         -5.1771   -0.0670   -0.0667 H         1 <0>         0.0752
     37 H8         -1.4219    0.1929   -0.1390 H         1 <0>         0.0532
     38 H9         -2.9341    0.7935   -0.9002 H         1 <0>         0.0685
     39 H10        -2.3755   -0.8846   -1.2144 H         1 <0>         0.0671
     40 H11        -4.6658    4.6888    2.9735 H         1 <0>         0.1639
     41 H12        -7.7988    6.1363   -1.5195 H         1 <0>         0.1171
     42 H13        -7.2747    6.0852   -3.9023 H         1 <0>         0.1176
     43 H14        -5.2029    5.0300   -4.7034 H         1 <0>         0.1209
     44 H15        -3.6289    4.0114   -3.1222 H         1 <0>         0.1170
     45 H16        -8.0730    5.4368    0.8673 H         1 <0>         0.0796
     46 H17        -7.1591    4.8000    2.2765 H         1 <0>         0.0773
     47 H18        -5.8222    6.8987    2.3580 H         1 <0>         0.0671
     48 H19        -6.7361    7.5356    0.9488 H         1 <0>         0.0679
     49 H20        -8.6882    6.7081    2.9857 H         1 <0>         0.4210
     50 H21        -8.6253   10.1271    4.4902 H         1 <0>         0.0899
     51 H22        -8.9065    8.4461    5.0576 H         1 <0>         0.0883
     52 H23        -9.8203    9.0830    3.6484 H         1 <0>         0.0864
@<TRIPOS>BOND
     1    1    2 1
     2    1   32 1
     3    1   33 1
     4    1   34 1
     5    2    3 1
     6    2   35 1
     7    2   36 1
     8    3    4 1
     9    3    5 1
    10    3    6 1
    11    5   37 1
    12    5   38 1
    13    5   39 1
    14    6   30 1
    15    6    7 am
    16    7    8 2
    17    7    9 1
    18    9   10 2
    19    9   27 1
    20   10   11 1
    21   10   40 1
    22   11   19 1
    23   11   12 2
    24   12   13 1
    25   12   21 1
    26   13   18 ar
    27   13   14 ar
    28   14   15 ar
    29   14   41 1
    30   15   16 ar
    31   15   42 1
    32   16   17 ar
    33   16   43 1
    34   17   18 ar
    35   17   44 1
    36   18   19 1
    37   19   20 1
    38   21   22 1
    39   21   45 1
    40   21   46 1
    41   22   23 1
    42   22   47 1
    43   22   48 1
    44   23   24 am
    45   23   49 1
    46   24   25 2
    47   24   26 1
    48   26   50 1
    49   26   51 1
    50   26   52 1
    51   27   28 1
    52   27   29 2
    53   29   30 1
    54   30   31 2
@<TRIPOS>MOLECULE
ZINC00811628
   45    47     0     0     0
SMALL
USER_CHARGES

@<TRIPOS>ATOM
      1 C1          1.8658   -2.7315   -3.2871 C.3       1 <0>        -0.1120
      2 C2          0.9930   -2.3127   -2.1321 C.ar      1 <0>        -0.1135
      3 C3          0.0509   -1.3155   -2.3036 C.ar      1 <0>        -0.0612
      4 C4         -0.7495   -0.9314   -1.2443 C.ar      1 <0>        -0.1368
      5 C5         -0.6084   -1.5447   -0.0133 C.ar      1 <0>         0.0280
      6 C6          0.3329   -2.5423    0.1579 C.ar      1 <0>        -0.6674
      7 C7          1.1306   -2.9294   -0.9028 C.ar      1 <0>        -0.0155
      8 S1          0.5131   -3.3235    1.7269 S.o2      1 <0>         2.6915
      9 O1          1.5494   -4.2854    1.5850 O.2       1 <0>        -0.9490
     10 O2          0.5658   -2.2842    2.6945 O.2       1 <0>        -0.9751
     11 N1         -0.8811   -4.1690    2.0160 N.pl3     1 <0>        -1.0787
     12 C8         -1.2109   -5.3393    1.1987 C.3       1 <0>         0.0993
     13 H1         -0.7644   -5.2298    0.2105 H         1 <0>         0.0741
     14 C9         -2.7305   -5.4540    1.0619 C.3       1 <0>        -0.0395
     15 C10        -3.2507   -4.2952    0.2511 C.2       1 <0>        -0.1410
     16 C11        -3.8784   -3.2072    0.7246 C.2       1 <0>         0.0338
     17 N2         -4.2040   -2.3700   -0.3075 N.pl3     1 <0>        -0.5987
     18 H2         -4.6629   -1.5208   -0.2127 H         1 <0>         0.4105
     19 C12        -3.7830   -2.9126   -1.5010 C.ar      1 <0>         0.1051
     20 C13        -3.1618   -4.1394   -1.2028 C.ar      1 <0>        -0.0964
     21 C14        -2.6270   -4.9174   -2.2311 C.ar      1 <0>        -0.0612
     22 C15        -2.7067   -4.4810   -3.5237 C.ar      1 <0>        -0.1526
     23 C16        -3.3148   -3.2698   -3.8226 C.ar      1 <0>        -0.0992
     24 C17        -3.8574   -2.4904   -2.8241 C.ar      1 <0>        -0.1375
     25 C18        -0.6708   -6.5815    1.8592 C.2       1 <0>         0.4913
     26 O3         -0.5717   -6.6325    3.0733 O.co2     1 <0>        -0.6833
     27 O4         -0.3330   -7.5356    1.1794 O.co2     1 <0>        -0.6929
     28 C19        -1.4804   -1.1253    1.1420 C.3       1 <0>        -0.1795
     29 H3          1.3771   -3.5342   -3.8394 H         1 <0>         0.0722
     30 H4          2.0259   -1.8803   -3.9488 H         1 <0>         0.0634
     31 H5          2.8256   -3.0830   -2.9084 H         1 <0>         0.0679
     32 H6         -0.0594   -0.8364   -3.2652 H         1 <0>         0.1214
     33 H7         -1.4850   -0.1519   -1.3781 H         1 <0>         0.1191
     34 H8          1.8635   -3.7115   -0.7700 H         1 <0>         0.1404
     35 H9         -1.4795   -3.8894    2.7264 H         1 <0>         0.4106
     36 H10        -2.9806   -6.3893    0.5611 H         1 <0>         0.0835
     37 H11        -3.1866   -5.4386    2.0518 H         1 <0>         0.0762
     38 H12        -4.0947   -3.0205    1.7662 H         1 <0>         0.1674
     39 H13        -2.1517   -5.8607   -2.0059 H         1 <0>         0.1241
     40 H14        -2.2929   -5.0833   -4.3189 H         1 <0>         0.1169
     41 H15        -3.3695   -2.9380   -4.8489 H         1 <0>         0.1169
     42 H16        -4.3275   -1.5489   -3.0667 H         1 <0>         0.1112
     43 H17        -2.4154   -1.6848    1.1133 H         1 <0>         0.0909
     44 H18        -0.9637   -1.3289    2.0799 H         1 <0>         0.1022
     45 H19        -1.6929   -0.0587    1.0683 H         1 <0>         0.0732
@<TRIPOS>BOND
     1    1    2 1
     2    1   29 1
     3    1   30 1
     4    1   31 1
     5    2    7 ar
     6    2    3 ar
     7    3    4 ar
     8    3   32 1
     9    4    5 ar
    10    4   33 1
    11    5    6 ar
    12    5   28 1
    13    6    7 ar
    14    6    8 1
    15    7   34 1
    16    8    9 2
    17    8   10 2
    18    8   11 1
    19   11   12 1
    20   11   35 1
    21   12   13 1
    22   12   14 1
    23   12   25 1
    24   14   15 1
    25   14   36 1
    26   14   37 1
    27   15   20 1
    28   15   16 2
    29   16   17 1
    30   16   38 1
    31   17   18 1
    32   17   19 1
    33   19   24 ar
    34   19   20 ar
    35   20   21 ar
    36   21   22 ar
    37   21   39 1
    38   22   23 ar
    39   22   40 1
    40   23   24 ar
    41   23   41 1
    42   24   42 1
    43   25   26 2
    44   25   27 1
    45   28   43 1
    46   28   44 1
    47   28   45 1
@<TRIPOS>MOLECULE
ZINC10433164
   44    45     0     0     0
SMALL
USER_CHARGES

@<TRIPOS>ATOM
      1 C1         -0.0187    1.5258    0.0104 C.3       1 <0>        -0.1658
      2 C2          0.0021   -0.0041    0.0020 C.3       1 <0>         0.1131
      3 N1          0.7106   -0.4894    1.1889 N.am      1 <0>        -0.7275
      4 C3          0.8538   -1.8138    1.3937 C.2       1 <0>         0.5117
      5 O1          0.3960   -2.6038    0.5954 O.2       1 <0>        -0.5316
      6 C4          1.5826   -2.3130    2.6146 C.3       1 <0>         0.1262
      7 H1          2.6052   -1.9357    2.6069 H         1 <0>         0.1168
      8 C5          0.8665   -1.8196    3.8734 C.3       1 <0>        -0.1601
      9 N2          1.6025   -3.7778    2.6065 N.am      1 <0>        -0.7130
     10 C6          2.5740   -4.4422    3.2632 C.2       1 <0>         0.5688
     11 O2          3.4335   -3.8262    3.8620 O.2       1 <0>        -0.5325
     12 C7          2.5941   -5.9227    3.2551 C.ar      1 <0>        -0.0917
     13 C8          1.6043   -6.6274    2.5585 C.ar      1 <0>        -0.1547
     14 C9          1.6063   -7.9927    2.5390 C.ar      1 <0>        -0.0294
     15 C10         2.6013   -8.6956    3.2176 C.ar      1 <0>        -0.2213
     16 C11         3.6073   -7.9998    3.9253 C.ar      1 <0>         0.1982
     17 C12         3.5974   -6.6020    3.9334 C.ar      1 <0>        -0.0680
     18 N3          4.5626   -8.7036    4.5770 N.2       1 <0>        -0.5600
     19 C13         4.5763  -10.0137    4.5669 C.2       1 <0>         0.5338
     20 S1          5.8575  -10.8472    5.4434 S.3       1 <0>        -0.7623
     21 N4          3.6434  -10.7632    3.9091 N.am      1 <0>        -0.5340
     22 C14         2.6412  -10.1665    3.2234 C.2       1 <0>         0.5488
     23 O3          1.8031  -10.8225    2.6331 O.2       1 <0>        -0.5353
     24 C15         3.7286  -12.2253    3.9458 C.3       1 <0>         0.1242
     25 C16         2.9488  -12.7444    5.1262 C.2       1 <0>        -0.1440
     26 C17         2.0070  -13.6374    4.9475 C.2       1 <0>        -0.1899
     27 H2          1.0039    1.9031    0.0027 H         1 <0>         0.0627
     28 H3         -0.5459    1.8868   -0.8726 H         1 <0>         0.0746
     29 H4         -0.5289    1.8773    0.9072 H         1 <0>         0.0624
     30 H5         -1.0205   -0.3814    0.0098 H         1 <0>         0.0688
     31 H6          0.5123   -0.3556   -0.8948 H         1 <0>         0.0688
     32 H7          1.0768    0.1425    1.8273 H         1 <0>         0.4031
     33 H8          0.8517   -0.7297    3.8794 H         1 <0>         0.0694
     34 H9         -0.1561   -2.1969    3.8811 H         1 <0>         0.0645
     35 H10         1.3937   -2.1806    4.7565 H         1 <0>         0.0788
     36 H11         0.9164   -4.2696    2.1286 H         1 <0>         0.4112
     37 H12         0.8321   -6.0860    2.0322 H         1 <0>         0.1238
     38 H13         0.8386   -8.5272    1.9993 H         1 <0>         0.1322
     39 H14         4.3614   -6.0551    4.4660 H         1 <0>         0.1454
     40 H15         3.3126  -12.6367    3.0261 H         1 <0>         0.0845
     41 H16         4.7721  -12.5261    4.0390 H         1 <0>         0.1239
     42 H17         3.1663  -12.3804    6.1194 H         1 <0>         0.1144
     43 H18         1.7895  -14.0014    3.9542 H         1 <0>         0.0951
     44 H19         1.4481  -14.0094    5.7934 H         1 <0>         0.0956
@<TRIPOS>BOND
     1    1    2 1
     2    1   27 1
     3    1   28 1
     4    1   29 1
     5    2    3 1
     6    2   30 1
     7    2   31 1
     8    3    4 am
     9    3   32 1
    10    4    5 2
    11    4    6 1
    12    6    7 1
    13    6    8 1
    14    6    9 1
    15    8   33 1
    16    8   34 1
    17    8   35 1
    18    9   10 am
    19    9   36 1
    20   10   11 2
    21   10   12 1
    22   12   17 ar
    23   12   13 ar
    24   13   14 ar
    25   13   37 1
    26   14   15 ar
    27   14   38 1
    28   15   22 1
    29   15   16 ar
    30   16   17 ar
    31   16   18 1
    32   17   39 1
    33   18   19 2
    34   19   20 1
    35   19   21 1
    36   21   22 am
    37   21   24 1
    38   22   23 2
    39   24   25 1
    40   24   40 1
    41   24   41 1
    42   25   26 2
    43   25   42 1
    44   26   43 1
    45   26   44 1
@<TRIPOS>MOLECULE
ZINC64497563
   45    45     0     0     0
SMALL
USER_CHARGES

@<TRIPOS>ATOM
      1 C1         -0.0187    1.5258    0.0104 C.3       1 <0>        -0.1548
      2 C2          0.0021   -0.0041    0.0020 C.3       1 <0>        -0.1304
      3 C3          0.7421   -0.5109    1.2415 C.3       1 <0>         0.1394
      4 C4          0.6554   -2.0374    1.2986 C.3       1 <0>        -0.1637
      5 N1          2.1476   -0.1038    1.1716 N.am      1 <0>        -0.7239
      6 C5          2.8685    0.0265    2.3029 C.2       1 <0>         0.5140
      7 O1          2.3536   -0.1931    3.3788 O.2       1 <0>        -0.5326
      8 C6          4.3144    0.4453    2.2310 C.3       1 <0>         0.1316
      9 C7          5.1009   -0.5764    1.4073 C.3       1 <0>        -0.1573
     10 N2          4.8709    0.5137    3.5845 N.am      1 <0>        -0.7329
     11 C8          5.9258    1.3127    3.8397 C.2       1 <0>         0.5731
     12 O2          6.4157    1.9768    2.9466 O.2       1 <0>        -0.5001
     13 C9          6.4858    1.3815    5.2018 C.ar      1 <0>        -0.2135
     14 C10         5.9297    0.6158    6.2301 C.ar      1 <0>        -0.0250
     15 C11         6.4581    0.6848    7.5014 C.ar      1 <0>        -0.1464
     16 C12         7.5401    1.5112    7.7663 C.ar      1 <0>        -0.0323
     17 C13         8.0993    2.2732    6.7614 C.ar      1 <0>        -0.2480
     18 C14         7.5842    2.2120    5.4724 C.ar      1 <0>         0.3378
     19 N3          8.1501    2.9737    4.4576 N.2       1 <0>        -1.0333
     20 S1          9.4461    3.9524    4.7813 S.o2      1 <0>         2.5156
     21 O3          8.9505    4.9192    5.6972 O.2       1 <0>        -1.0278
     22 O4         10.4869    3.0622    5.1602 O.2       1 <0>        -1.0279
     23 C15         9.8434    4.7395    3.1960 C.3       1 <0>        -0.6308
     24 Cl1         5.7653   -0.2668    8.7774 Cl        1 <0>        -0.1109
     25 H1          1.0039    1.9031    0.0027 H         1 <0>         0.0574
     26 H2         -0.5459    1.8868   -0.8726 H         1 <0>         0.0552
     27 H3         -0.5289    1.8773    0.9072 H         1 <0>         0.0558
     28 H4         -1.0205   -0.3814    0.0098 H         1 <0>         0.0767
     29 H5          0.5123   -0.3556   -0.8948 H         1 <0>         0.0674
     30 H6          0.2852   -0.0874    2.1360 H         1 <0>         0.0885
     31 H7          1.1123   -2.4609    0.4042 H         1 <0>         0.0560
     32 H8          1.1826   -2.3985    2.1817 H         1 <0>         0.0620
     33 H9         -0.3904   -2.3402    1.3506 H         1 <0>         0.0634
     34 H10         2.5595    0.0718    0.3111 H         1 <0>         0.4004
     35 H11         4.3858    1.4251    1.7588 H         1 <0>         0.1108
     36 H12         4.6868   -0.6273    0.4002 H         1 <0>         0.0617
     37 H13         6.1466   -0.2735    1.3552 H         1 <0>         0.0781
     38 H14         5.0294   -1.5562    1.8794 H         1 <0>         0.0598
     39 H15         4.4801   -0.0161    4.2969 H         1 <0>         0.4012
     40 H16         5.0869   -0.0289    6.0290 H         1 <0>         0.1181
     41 H17         7.9472    1.5586    8.7655 H         1 <0>         0.1161
     42 H18         8.9412    2.9147    6.9759 H         1 <0>         0.1160
     43 H19         8.9830    5.3115    2.8487 H         1 <0>         0.1171
     44 H20        10.6953    5.4070    3.3252 H         1 <0>         0.1011
     45 H21        10.0905    3.9729    2.4616 H         1 <0>         0.1171
@<TRIPOS>BOND
     1    1    2 1
     2    1   25 1
     3    1   26 1
     4    1   27 1
     5    2    3 1
     6    2   28 1
     7    2   29 1
     8    3    4 1
     9    3    5 1
    10    3   30 1
    11    4   31 1
    12    4   32 1
    13    4   33 1
    14    5    6 am
    15    5   34 1
    16    6    7 2
    17    6    8 1
    18    8    9 1
    19    8   10 1
    20    8   35 1
    21    9   36 1
    22    9   37 1
    23    9   38 1
    24   10   11 am
    25   10   39 1
    26   11   12 2
    27   11   13 1
    28   13   18 ar
    29   13   14 ar
    30   14   15 ar
    31   14   40 1
    32   15   16 ar
    33   15   24 1
    34   16   17 ar
    35   16   41 1
    36   17   18 ar
    37   17   42 1
    38   18   19 1
    39   19   20 1
    40   20   21 2
    41   20   22 2
    42   20   23 1
    43   23   43 1
    44   23   44 1
    45   23   45 1
@<TRIPOS>MOLECULE
ZINC67045706
   50    52     0     0     0
SMALL
USER_CHARGES

@<TRIPOS>ATOM
      1 C1         -0.2049    1.4919   -1.1439 C.3       1 <0>        -0.1705
      2 C2         -0.1847   -0.0138   -1.0852 C.2       1 <0>         0.4979
      3 O1          0.6991   -0.6306   -1.6417 O.2       1 <0>        -0.5346
      4 N1         -1.1486   -0.6750   -0.4143 N.am      1 <0>        -0.6603
      5 C3         -1.1866   -2.0760   -0.4418 C.ar      1 <0>         0.0086
      6 C4          0.0005   -2.8017   -0.4615 C.ar      1 <0>        -0.0343
      7 C5         -0.0258   -4.1802   -0.4886 C.ar      1 <0>        -0.2456
      8 C6         -1.2404   -4.8549   -0.4959 C.ar      1 <0>         0.3291
      9 C7         -2.4410   -4.1292   -0.4756 C.ar      1 <0>        -0.2111
     10 C8         -2.4041   -2.7328   -0.4434 C.ar      1 <0>        -0.0568
     11 C9         -3.7347   -4.8364   -0.4831 C.2       1 <0>         0.5659
     12 O2         -3.7630   -6.0519   -0.5070 O.2       1 <0>        -0.5013
     13 N2         -4.8858   -4.1357   -0.4636 N.am      1 <0>        -0.7503
     14 C10        -6.1713   -4.8385   -0.4711 C.3       1 <0>         0.1308
     15 C11        -7.3107   -3.8177   -0.4452 C.3       1 <0>        -0.1008
     16 H1         -7.1640   -3.1062    0.3673 H         1 <0>         0.0750
     17 C12        -7.4022   -3.0779   -1.7994 C.3       1 <0>        -0.1186
     18 C13        -8.8227   -3.4231   -2.3420 C.3       1 <0>        -0.1044
     19 H2         -9.2185   -2.7505   -3.1029 H         1 <0>         0.0928
     20 C14        -8.7328   -4.9274   -2.7422 C.3       1 <0>        -0.1209
     21 C15        -8.6334   -5.6841   -1.3979 C.3       1 <0>        -0.1321
     22 C16        -8.6842   -4.5400   -0.2940 C.3       1 <0>        -0.0950
     23 H3         -8.9526   -4.8466    0.7170 H         1 <0>         0.0993
     24 C17        -9.6332   -3.5065   -1.0006 C.3       1 <0>        -0.1224
     25 N3         -1.2660   -6.2450   -0.5236 N.2       1 <0>        -1.0361
     26 S1          0.1526   -7.0989   -0.5481 S.o2      1 <0>         2.5139
     27 O3          0.7679   -6.7448   -1.7790 O.2       1 <0>        -1.0289
     28 O4          0.7806   -6.7943    0.6897 O.2       1 <0>        -1.0304
     29 C18        -0.3524   -8.8409   -0.5804 C.3       1 <0>        -0.6314
     30 H4          0.6468    1.8444   -1.7255 H         1 <0>         0.0893
     31 H5         -1.1296    1.8248   -1.6154 H         1 <0>         0.0850
     32 H6         -0.1467    1.8958   -0.1331 H         1 <0>         0.0843
     33 H7         -1.8161   -0.1815    0.0875 H         1 <0>         0.3997
     34 H8          0.9475   -2.2826   -0.4560 H         1 <0>         0.1220
     35 H9          0.8997   -4.7366   -0.5045 H         1 <0>         0.1106
     36 H10        -3.3241   -2.1675   -0.4235 H         1 <0>         0.1079
     37 H11        -4.8632   -3.1662   -0.4445 H         1 <0>         0.3880
     38 H12        -6.2480   -5.4459   -1.3728 H         1 <0>         0.0667
     39 H13        -6.2392   -5.4811    0.4068 H         1 <0>         0.0583
     40 H14        -7.3026   -2.0025   -1.6524 H         1 <0>         0.0613
     41 H15        -6.6354   -3.4414   -2.4836 H         1 <0>         0.0714
     42 H16        -9.6288   -5.2308   -3.2836 H         1 <0>         0.0586
     43 H17        -7.8435   -5.1075   -3.3462 H         1 <0>         0.0654
     44 H18        -9.4805   -6.3595   -1.2785 H         1 <0>         0.0592
     45 H19        -7.6952   -6.2362   -1.3411 H         1 <0>         0.0786
     46 H20        -9.6565   -2.5508   -0.4769 H         1 <0>         0.0673
     47 H21       -10.6349   -3.9086   -1.1525 H         1 <0>         0.0666
     48 H22        -0.9516   -9.0290   -1.4713 H         1 <0>         0.1162
     49 H23         0.5335   -9.4758   -0.5977 H         1 <0>         0.0997
     50 H24        -0.9424   -9.0647    0.3083 H         1 <0>         0.1162
@<TRIPOS>BOND
     1    1    2 1
     2    1   30 1
     3    1   31 1
     4    1   32 1
     5    2    3 2
     6    2    4 am
     7    4    5 1
     8    4   33 1
     9    5   10 ar
    10    5    6 ar
    11    6    7 ar
    12    6   34 1
    13    7    8 ar
    14    7   35 1
    15    8    9 ar
    16    8   25 1
    17    9   10 ar
    18    9   11 1
    19   10   36 1
    20   11   12 2
    21   11   13 am
    22   13   14 1
    23   13   37 1
    24   14   15 1
    25   14   38 1
    26   14   39 1
    27   15   16 1
    28   15   22 1
    29   15   17 1
    30   17   18 1
    31   17   40 1
    32   17   41 1
    33   18   19 1
    34   18   24 1
    35   18   20 1
    36   20   21 1
    37   20   42 1
    38   20   43 1
    39   21   22 1
    40   21   44 1
    41   21   45 1
    42   22   23 1
    43   22   24 1
    44   24   46 1
    45   24   47 1
    46   25   26 1
    47   26   27 2
    48   26   28 2
    49   26   29 1
    50   29   48 1
    51   29   49 1
    52   29   50 1
@<TRIPOS>MOLECULE
ZINC13051267
   50    52     0     0     0
SMALL
USER_CHARGES
2-[2-(cyclopentylamino)-2-oxo-ethyl]sulfanyl-3-[(2S)-2-hydroxypropyl]-4-oxo-quinazoline-7-carboxylic acid
@<TRIPOS>ATOM
      1 C1          9.3120    3.2496    5.2621 C.3       1 <0>        -0.1816
      2 C2          9.6370    2.5424    3.9449 C.3       1 <0>         0.0870
      3 H1          8.9652    1.6943    3.8124 H         1 <0>         0.1061
      4 C3          9.4579    3.5214    2.7828 C.3       1 <0>         0.0578
      5 N1          9.6525    2.8145    1.5144 N.am      1 <0>        -0.5240
      6 C4         10.8895    2.7387    0.9715 C.2       1 <0>         0.5646
      7 O1         11.8504    3.2480    1.5179 O.2       1 <0>        -0.5130
      8 C5         11.0299    2.0225   -0.3064 C.ar      1 <0>        -0.1931
      9 C6         12.2637    1.8974   -0.9441 C.ar      1 <0>        -0.0627
     10 C7         12.3520    1.2253   -2.1292 C.ar      1 <0>        -0.0871
     11 C8         11.2123    0.6577   -2.7139 C.ar      1 <0>        -0.0678
     12 C9          9.9732    0.7701   -2.0961 C.ar      1 <0>        -0.0734
     13 C10         9.8705    1.4560   -0.8824 C.ar      1 <0>         0.1368
     14 N2          8.6836    1.5906   -0.2452 N.2       1 <0>        -0.5133
     15 C11         8.5849    2.2333    0.8922 C.2       1 <0>         0.3355
     16 S1          6.9995    2.3599    1.6507 S.3       1 <0>         0.0530
     17 C12         5.9998    1.4571    0.4417 C.3       1 <0>        -0.1479
     18 C13         4.5626    1.4351    0.8946 C.2       1 <0>         0.5358
     19 O2          4.2455    1.9765    1.9325 O.2       1 <0>        -0.5279
     20 N3          3.6296    0.8138    0.1462 N.am      1 <0>        -0.7168
     21 C14         2.2325    0.7924    0.5864 C.3       1 <0>         0.1393
     22 C15         1.4534    1.9953   -0.0011 C.3       1 <0>        -0.1371
     23 C16        -0.0188    1.5345    0.0105 C.3       1 <0>        -0.1236
     24 C17         0.0021   -0.0041    0.0020 C.3       1 <0>        -0.1222
     25 C18         1.4862   -0.4246   -0.0144 C.3       1 <0>        -0.1322
     26 C19        11.3293   -0.0662   -3.9989 C.2       1 <0>         0.4884
     27 O3         10.3442   -0.5595   -4.5098 O.co2     1 <0>        -0.6224
     28 O4         10.9887    2.0795    3.9736 O.3       1 <0>        -0.5517
     29 H2          8.2810    3.6027    5.2402 H         1 <0>         0.0716
     30 H3          9.4396    2.5521    6.0900 H         1 <0>         0.0711
     31 H4          9.9838    4.0977    5.3946 H         1 <0>         0.0618
     32 H5         10.1905    4.3240    2.8676 H         1 <0>         0.1057
     33 H6          8.4528    3.9420    2.8137 H         1 <0>         0.1035
     34 H7         13.1479    2.3315   -0.5012 H         1 <0>         0.1336
     35 H8         13.3092    1.1300   -2.6202 H         1 <0>         0.1428
     36 H9          9.0967    0.3317   -2.5498 H         1 <0>         0.1437
     37 H10         6.3692    0.4352    0.3554 H         1 <0>         0.1320
     38 H11         6.0678    1.9512   -0.5275 H         1 <0>         0.1316
     39 H12         3.8833    0.3808   -0.6839 H         1 <0>         0.4065
     40 H13         2.1693    0.7856    1.6746 H         1 <0>         0.0993
     41 H14         1.7808    2.2008   -1.0203 H         1 <0>         0.0706
     42 H15         1.5822    2.8767    0.6270 H         1 <0>         0.0708
     43 H16        -0.5332    1.9058   -0.8758 H         1 <0>         0.0662
     44 H17        -0.5162    1.8962    0.9104 H         1 <0>         0.0657
     45 H18        -0.4852   -0.3890    0.8978 H         1 <0>         0.0666
     46 H19        -0.5022   -0.3794   -0.8884 H         1 <0>         0.0679
     47 H20         1.6390   -1.3091    0.6040 H         1 <0>         0.0732
     48 H21         1.8183   -0.6122   -1.0355 H         1 <0>         0.0742
     49 H22        11.6427    2.7823    4.0892 H         1 <0>         0.3789
     50 O5         12.5283   -0.1781   -4.6021 O.co2     1 <0>        -0.7439
@<TRIPOS>BOND
     1    1    2 1
     2    1   29 1
     3    1   30 1
     4    1   31 1
     5    2    3 1
     6    2    4 1
     7    2   28 1
     8    4    5 1
     9    4   32 1
    10    4   33 1
    11    5   15 1
    12    5    6 am
    13    6    7 2
    14    6    8 1
    15    8   13 ar
    16    8    9 ar
    17    9   10 ar
    18    9   34 1
    19   10   11 ar
    20   10   35 1
    21   11   12 ar
    22   11   26 1
    23   12   13 ar
    24   12   36 1
    25   13   14 1
    26   14   15 2
    27   15   16 1
    28   16   17 1
    29   17   18 1
    30   17   37 1
    31   17   38 1
    32   18   19 2
    33   18   20 am
    34   20   21 1
    35   20   39 1
    36   21   25 1
    37   21   22 1
    38   21   40 1
    39   22   23 1
    40   22   41 1
    41   22   42 1
    42   23   24 1
    43   23   43 1
    44   23   44 1
    45   24   25 1
    46   24   45 1
    47   24   46 1
    48   25   47 1
    49   25   48 1
    50   26   27 2
    51   26   50 1
    52   28   49 1
@<TRIPOS>MOLECULE
ZINC13576271
   44    46     0     0     0
SMALL
USER_CHARGES
5-[4-[(5Z)-5-(2-furylmethylene)-4-oxo-2-thioxo-thiazolidin-3-yl]butanoylamino]-2-hydroxy-benzoic acid
@<TRIPOS>ATOM
      1 C1         13.6584   -1.4404   -1.1465 C.2       1 <0>        -0.2248
      2 C2         12.8006   -0.6718   -1.9485 C.2       1 <0>        -0.1234
      3 C3         11.9475   -0.0096   -1.0884 C.2       1 <0>        -0.0437
      4 O1         12.2707   -0.3702    0.1711 O.3       1 <0>        -0.1577
      5 C4         13.2991   -1.2304    0.1390 C.2       1 <0>         0.0125
      6 C5         10.9156    0.8825   -1.4611 C.2       1 <0>         0.1111
      7 C6         10.1399    1.4657   -0.5035 C.2       1 <0>        -0.2450
      8 C7          9.0223    2.4136   -0.6497 C.2       1 <0>         0.5461
      9 O2          8.6530    2.8018   -1.7433 O.2       1 <0>        -0.4570
     10 N1          8.4397    2.8227    0.4646 N.am      1 <0>        -0.5199
     11 C8          8.8554    2.3949    1.6743 C.2       1 <0>         0.2690
     12 S1          8.2419    2.8091    3.2180 S.2       1 <0>        -0.3189
     13 S2         10.1992    1.2890    1.2744 S.3       1 <0>         0.0893
     14 C9          7.3218    3.7662    0.3838 C.3       1 <0>         0.0844
     15 C10         6.0070    2.9911    0.2769 C.3       1 <0>        -0.1205
     16 C11         4.8396    3.9764    0.1925 C.3       1 <0>        -0.1297
     17 C12         3.5445    3.2130    0.0872 C.2       1 <0>         0.5037
     18 O3          3.5544    2.0001    0.0804 O.2       1 <0>        -0.5037
     19 N2          2.3754    3.8779    0.0007 N.am      1 <0>        -0.6716
     20 C13         1.1651    3.1718    0.0142 C.ar      1 <0>         0.1069
     21 C14         0.0806    3.6395   -0.7209 C.ar      1 <0>        -0.1319
     22 C15        -1.1152    2.9510   -0.7138 C.ar      1 <0>        -0.1496
     23 C16        -1.2462    1.7894    0.0327 C.ar      1 <0>         0.1244
     24 C17        -0.1565    1.3089    0.7718 C.ar      1 <0>        -0.1245
     25 C18         1.0514    2.0113    0.7592 C.ar      1 <0>        -0.0596
     26 C19        -0.2859    0.0721    1.5632 C.2       1 <0>         0.4886
     27 O4         -1.3377   -0.5363    1.5720 O.co2     1 <0>        -0.6163
     28 O5         -2.4249    1.1169    0.0433 O.3       1 <0>        -0.4761
     29 H1         14.4541   -2.0835   -1.4926 H         1 <0>         0.1599
     30 H2         12.8077   -0.6091   -3.0266 H         1 <0>         0.1637
     31 H3         13.7653   -1.6824    1.0020 H         1 <0>         0.2131
     32 H4         10.7419    1.1018   -2.5042 H         1 <0>         0.1836
     33 H5          7.4432    4.3988   -0.4955 H         1 <0>         0.1056
     34 H6          7.3055    4.3877    1.2791 H         1 <0>         0.1149
     35 H7          5.8857    2.3585    1.1562 H         1 <0>         0.0872
     36 H8          6.0234    2.3696   -0.6184 H         1 <0>         0.0787
     37 H9          4.9609    4.6090   -0.6868 H         1 <0>         0.0977
     38 H10         4.8232    4.5979    1.0878 H         1 <0>         0.1035
     39 H11         2.3718    4.8452   -0.0710 H         1 <0>         0.4057
     40 H12         0.1752    4.5459   -1.3005 H         1 <0>         0.1209
     41 H13        -1.9527    3.3201   -1.2873 H         1 <0>         0.1261
     42 H14         1.8940    1.6495    1.3297 H         1 <0>         0.1460
     43 H15        -2.5010    0.4456   -0.6485 H         1 <0>         0.3837
     44 O6          0.7622   -0.3839    2.2770 O.co2     1 <0>        -0.7522
@<TRIPOS>BOND
     1    1    5 2
     2    1    2 1
     3    1   29 1
     4    2    3 2
     5    2   30 1
     6    3    4 1
     7    3    6 1
     8    4    5 1
     9    5   31 1
    10    6    7 2
    11    6   32 1
    12    7   13 1
    13    7    8 1
    14    8    9 2
    15    8   10 am
    16   10   11 1
    17   10   14 1
    18   11   12 2
    19   11   13 1
    20   14   15 1
    21   14   33 1
    22   14   34 1
    23   15   16 1
    24   15   35 1
    25   15   36 1
    26   16   17 1
    27   16   37 1
    28   16   38 1
    29   17   18 2
    30   17   19 am
    31   19   20 1
    32   19   39 1
    33   20   25 ar
    34   20   21 ar
    35   21   22 ar
    36   21   40 1
    37   22   23 ar
    38   22   41 1
    39   23   24 ar
    40   23   28 1
    41   24   25 ar
    42   24   26 1
    43   25   42 1
    44   26   27 2
    45   26   44 1
    46   28   43 1
@<TRIPOS>MOLECULE
ZINC48553280
   48    50     0     0     0
SMALL
USER_CHARGES

@<TRIPOS>ATOM
      1 C1          1.0069    0.2541   -3.5146 C.3       1 <0>        -0.1310
      2 C2          0.7163    0.1965   -2.0370 C.2       1 <0>        -0.1190
      3 C3          1.1171    1.1802   -1.2438 C.2       1 <0>        -0.1293
      4 C4          1.9880    2.2498   -1.7751 C.ar      1 <0>        -0.0454
      5 C5          1.7957    3.5729   -1.3760 C.ar      1 <0>        -0.1102
      6 C6          2.6121    4.5667   -1.8757 C.ar      1 <0>        -0.1220
      7 C7          3.6193    4.2536   -2.7709 C.ar      1 <0>        -0.1232
      8 C8          3.8149    2.9437   -3.1710 C.ar      1 <0>        -0.1220
      9 C9          3.0097    1.9398   -2.6735 C.ar      1 <0>        -0.1080
     10 C10        -0.0300   -0.9792   -1.4611 C.3       1 <0>         0.1657
     11 H1         -0.0133   -0.9224   -0.3727 H         1 <0>         0.1017
     12 C11        -1.4574   -0.9535   -1.9436 C.2       1 <0>         0.1224
     13 N1         -2.3828   -0.4181   -1.2059 N.2       1 <0>        -0.1379
     14 N2         -2.0381    0.2420   -0.0192 N.am      1 <0>        -0.5898
     15 C12        -3.0036    0.7053    0.7991 C.2       1 <0>         0.5286
     16 O1         -4.1709    0.5508    0.5081 O.2       1 <0>        -0.4747
     17 C13        -2.6329    1.4154    2.0756 C.3       1 <0>        -0.0384
     18 C14        -3.8573    1.8199    2.7855 C.1       1 <0>         0.2200
     19 N3         -4.8022    2.1321    3.3333 N.1       1 <0>        -0.4103
     20 C15        -1.8030   -1.5350   -3.2509 C.ar      1 <0>         0.0848
     21 C16        -3.1192   -1.3984   -3.7575 C.ar      1 <0>         0.4040
     22 N4         -3.4397   -1.9139   -4.9248 N.ar      1 <0>        -0.5574
     23 C17        -2.5163   -2.5724   -5.6396 C.ar      1 <0>         0.1850
     24 C18        -2.8357   -3.1301   -6.8878 C.ar      1 <0>        -0.1163
     25 C19        -1.8800   -3.7949   -7.5966 C.ar      1 <0>         0.0025
     26 C20        -0.5841   -3.9311   -7.0996 C.ar      1 <0>        -0.1715
     27 C21        -0.2389   -3.4034   -5.8936 C.ar      1 <0>        -0.0265
     28 C22        -1.1988   -2.7103   -5.1344 C.ar      1 <0>        -0.0319
     29 N5         -0.8816   -2.1781   -3.9496 N.ar      1 <0>        -0.4029
     30 Cl1        -2.2816   -4.4822   -9.1393 Cl        1 <0>        -0.0874
     31 O2         -4.0532   -0.7335   -3.0357 O.3       1 <0>        -0.6135
     32 O3          0.5940   -2.1931   -1.8843 O.3       1 <0>        -0.5433
     33 H2          1.9674   -0.2207   -3.7147 H         1 <0>         0.0735
     34 H3          0.2220   -0.2699   -4.0599 H         1 <0>         0.0808
     35 H4          1.0415    1.2945   -3.8378 H         1 <0>         0.0703
     36 H5          0.8072    1.2001   -0.2094 H         1 <0>         0.1173
     37 H6          1.0093    3.8187   -0.6778 H         1 <0>         0.1225
     38 H7          2.4643    5.5912   -1.5676 H         1 <0>         0.1205
     39 H8          4.2554    5.0351   -3.1594 H         1 <0>         0.1187
     40 H9          4.6025    2.7059   -3.8706 H         1 <0>         0.1214
     41 H10         3.1667    0.9169   -2.9826 H         1 <0>         0.1291
     42 H11        -1.1046    0.3656    0.2135 H         1 <0>         0.3737
     43 H12        -2.0507    0.7453    2.7081 H         1 <0>         0.1415
     44 H13        -2.0402    2.2995    1.8406 H         1 <0>         0.1415
     45 H14        -3.8354   -3.0331   -7.2848 H         1 <0>         0.1346
     46 H15         0.1555   -4.4630   -7.6796 H         1 <0>         0.1270
     47 H16         0.7683   -3.5168   -5.5208 H         1 <0>         0.1306
     48 H17         0.7530   -2.2423   -2.8369 H         1 <0>         0.3941
@<TRIPOS>BOND
     1    1    2 1
     2    1   33 1
     3    1   34 1
     4    1   35 1
     5    2    3 2
     6    2   10 1
     7    3    4 1
     8    3   36 1
     9    4    9 ar
    10    4    5 ar
    11    5    6 ar
    12    5   37 1
    13    6    7 ar
    14    6   38 1
    15    7    8 ar
    16    7   39 1
    17    8    9 ar
    18    8   40 1
    19    9   41 1
    20   10   11 1
    21   10   12 1
    22   10   32 1
    23   12   13 2
    24   12   20 1
    25   13   14 1
    26   14   15 am
    27   14   42 1
    28   15   16 2
    29   15   17 1
    30   17   18 1
    31   17   43 1
    32   17   44 1
    33   18   19 3
    34   20   29 ar
    35   20   21 ar
    36   21   22 ar
    37   21   31 1
    38   22   23 ar
    39   23   28 ar
    40   23   24 ar
    41   24   25 ar
    42   24   45 1
    43   25   26 ar
    44   25   30 1
    45   26   27 ar
    46   26   46 1
    47   27   28 ar
    48   27   47 1
    49   28   29 ar
    50   32   48 1
@<TRIPOS>MOLECULE
ZINC61633216
   40    42     0     0     0
SMALL
USER_CHARGES

@<TRIPOS>ATOM
      1 C1         -0.0163    1.3540    0.0095 C.2       1 <0>        -0.1420
      2 C2          1.1763    2.0417    0.0018 C.2       1 <0>        -0.1433
      3 C3          2.3479    1.3277   -0.0132 C.2       1 <0>        -0.0376
      4 S1          1.7522   -0.3554   -0.0166 S.3       1 <0>         0.0444
      5 C4          0.0021   -0.0041    0.0020 C.2       1 <0>        -0.1916
      6 C5          3.7346    1.8208   -0.0238 C.2       1 <0>         0.1786
      7 N1          4.1264    3.0477   -0.2890 N.2       1 <0>        -0.2560
      8 N2          5.4063    3.1266   -0.2073 N.2       1 <0>        -0.3335
      9 C6          5.9123    1.9580    0.1145 C.2       1 <0>         0.3830
     10 S2          7.6196    1.5848    0.3395 S.3       1 <0>        -0.7873
     11 N3          4.8674    1.0862    0.2480 N.pl3     1 <0>        -0.4895
     12 C7          4.9383   -0.3334    0.6029 C.3       1 <0>         0.1385
     13 C8          5.0753   -1.1711   -0.6701 C.3       1 <0>        -0.1460
     14 C9          5.1483   -2.6314   -0.3051 C.2       1 <0>         0.5327
     15 O1          5.0958   -2.9689    0.8587 O.2       1 <0>        -0.5317
     16 N4          5.2718   -3.5623   -1.2718 N.am      1 <0>        -0.5230
     17 N5          5.3396   -4.9199   -0.9324 N.am      1 <0>        -0.5131
     18 C10         5.4631   -5.8509   -1.8992 C.2       1 <0>         0.5559
     19 O2          5.5156   -5.5126   -3.0654 O.2       1 <0>        -0.5282
     20 C11         5.5346   -7.2841   -1.5409 C.ar      1 <0>        -0.0954
     21 C12         5.4685   -7.6730   -0.2015 C.ar      1 <0>        -0.0859
     22 C13         5.5351   -9.0075    0.1324 C.ar      1 <0>        -0.0739
     23 C14         5.6684   -9.9720   -0.8690 C.ar      1 <0>        -0.0007
     24 C15         5.7341   -9.5828   -2.2088 C.ar      1 <0>        -0.0759
     25 C16         5.6626   -8.2485   -2.5425 C.ar      1 <0>        -0.0552
     26 C17         5.7382  -11.3596   -0.5221 C.1       1 <0>         0.2494
     27 N6          5.7936  -12.4603   -0.2469 N.1       1 <0>        -0.4046
     28 H1         -0.9550    1.8878    0.0258 H         1 <0>         0.1349
     29 H2          1.1895    3.1216    0.0071 H         1 <0>         0.1423
     30 H3         -0.8287   -0.6941    0.0069 H         1 <0>         0.1842
     31 H4          5.8021   -0.5047    1.2452 H         1 <0>         0.1144
     32 H5          4.0297   -0.6216    1.1314 H         1 <0>         0.0906
     33 H6          4.2115   -0.9999   -1.3124 H         1 <0>         0.1007
     34 H7          5.9840   -0.8829   -1.1987 H         1 <0>         0.1190
     35 H8          5.3137   -3.2924   -2.2025 H         1 <0>         0.4350
     36 H9          5.2976   -5.1899   -0.0017 H         1 <0>         0.4319
     37 H10         5.3654   -6.9271    0.5728 H         1 <0>         0.1405
     38 H11         5.4846   -9.3081    1.1685 H         1 <0>         0.1434
     39 H12         5.8376  -10.3284   -2.9833 H         1 <0>         0.1435
     40 H13         5.7096   -7.9477   -3.5787 H         1 <0>         0.1514
@<TRIPOS>BOND
     1    1    5 2
     2    1    2 1
     3    1   28 1
     4    2    3 2
     5    2   29 1
     6    3    4 1
     7    3    6 1
     8    4    5 1
     9    5   30 1
    10    6   11 1
    11    6    7 2
    12    7    8 1
    13    8    9 2
    14    9   10 1
    15    9   11 1
    16   11   12 1
    17   12   13 1
    18   12   31 1
    19   12   32 1
    20   13   14 1
    21   13   33 1
    22   13   34 1
    23   14   15 2
    24   14   16 am
    25   16   17 1
    26   16   35 1
    27   17   18 am
    28   17   36 1
    29   18   19 2
    30   18   20 1
    31   20   25 ar
    32   20   21 ar
    33   21   22 ar
    34   21   37 1
    35   22   23 ar
    36   22   38 1
    37   23   24 ar
    38   23   26 1
    39   24   25 ar
    40   24   39 1
    41   25   40 1
    42   26   27 3
@<TRIPOS>MOLECULE
ZINC66588147
   41    42     0     0     0
SMALL
USER_CHARGES

@<TRIPOS>ATOM
      1 C1         -0.0187    1.5258    0.0104 C.3       1 <0>        -0.1484
      2 C2          0.0021   -0.0041    0.0020 C.3       1 <0>         0.0549
      3 O1         -1.3386   -0.4987    0.0122 O.3       1 <0>        -0.3210
      4 C3         -1.4983   -1.8482    0.0064 C.ar      1 <0>         0.1630
      5 C4         -0.3880   -2.6779   -0.0029 C.ar      1 <0>        -0.2628
      6 C5         -0.5546   -4.0558   -0.0088 C.ar      1 <0>         0.3065
      7 C6         -1.8338   -4.5991   -0.0053 C.ar      1 <0>        -0.2886
      8 C7         -2.9374   -3.7688    0.0040 C.ar      1 <0>        -0.0321
      9 C8         -2.7731   -2.3964    0.0157 C.ar      1 <0>        -0.2202
     10 C9         -3.9801   -1.4942    0.0321 C.3       1 <0>        -0.0799
     11 N1          0.5616   -4.8952   -0.0186 N.2       1 <0>        -1.0812
     12 S1          0.3614   -6.5390   -0.0256 S.o2      1 <0>         2.5937
     13 O2         -0.2280   -6.8817    1.2211 O.2       1 <0>        -1.0173
     14 O3         -0.2409   -6.8695   -1.2695 O.2       1 <0>        -1.0114
     15 C10         1.9693   -7.2596   -0.0375 C.ar      1 <0>        -0.6026
     16 C11         2.3968   -8.0140    1.0389 C.ar      1 <0>        -0.0239
     17 C12         3.6580   -8.5794    1.0299 C.ar      1 <0>        -0.0568
     18 C13         4.4935   -8.3912   -0.0556 C.ar      1 <0>        -0.6200
     19 C14         4.0681   -7.6378   -1.1330 C.ar      1 <0>        -0.0804
     20 C15         2.8028   -7.0752   -1.1273 C.ar      1 <0>         0.1837
     21 F1          2.3841   -6.3423   -2.1822 F         1 <0>        -0.1060
     22 S2          6.1014   -9.1117   -0.0648 S.o2      1 <0>         2.7067
     23 O4          6.8896   -8.3346   -0.9558 O.2       1 <0>        -0.9576
     24 O5          6.4636   -9.3139    1.2943 O.2       1 <0>        -0.9571
     25 N2          5.9605  -10.6147   -0.7456 N.pl3     1 <0>        -1.2487
     26 H1          1.0039    1.9031    0.0027 H         1 <0>         0.0715
     27 H2         -0.5459    1.8868   -0.8726 H         1 <0>         0.0616
     28 H3         -0.5289    1.8773    0.9072 H         1 <0>         0.0614
     29 H4          0.5123   -0.3556   -0.8948 H         1 <0>         0.0594
     30 H5          0.5293   -0.3651    0.8851 H         1 <0>         0.0592
     31 H6          0.6049   -2.2530   -0.0060 H         1 <0>         0.1188
     32 H7         -1.9649   -5.6711   -0.0102 H         1 <0>         0.0975
     33 H8         -3.9308   -4.1927    0.0064 H         1 <0>         0.1103
     34 H9         -4.2809   -1.2711   -0.9916 H         1 <0>         0.0474
     35 H10        -4.7990   -1.9923    0.5511 H         1 <0>         0.0485
     36 H11        -3.7333   -0.5666    0.5486 H         1 <0>         0.0552
     37 H12         1.7452   -8.1614    1.8875 H         1 <0>         0.1608
     38 H13         3.9913   -9.1684    1.8716 H         1 <0>         0.1553
     39 H14         4.7210   -7.4906   -1.9806 H         1 <0>         0.1603
     40 H15         5.0946  -10.9313   -1.0473 H         1 <0>         0.4189
     41 H16         6.7438  -11.1786   -0.8427 H         1 <0>         0.4213
@<TRIPOS>BOND
     1    1    2 1
     2    1   26 1
     3    1   27 1
     4    1   28 1
     5    2    3 1
     6    2   29 1
     7    2   30 1
     8    3    4 1
     9    4    9 ar
    10    4    5 ar
    11    5    6 ar
    12    5   31 1
    13    6    7 ar
    14    6   11 1
    15    7    8 ar
    16    7   32 1
    17    8    9 ar
    18    8   33 1
    19    9   10 1
    20   10   34 1
    21   10   35 1
    22   10   36 1
    23   11   12 1
    24   12   13 2
    25   12   14 2
    26   12   15 1
    27   15   20 ar
    28   15   16 ar
    29   16   17 ar
    30   16   37 1
    31   17   18 ar
    32   17   38 1
    33   18   19 ar
    34   18   22 1
    35   19   20 ar
    36   19   39 1
    37   20   21 1
    38   22   23 2
    39   22   24 2
    40   22   25 1
    41   25   40 1
    42   25   41 1
@<TRIPOS>MOLECULE
ZINC16926078
   40    42     0     0     0
SMALL
USER_CHARGES
4-[[2-[(5S)-3-(4-hydroxyphenyl)-2,4-dioxo-thiazolidin-5-yl]acetyl]amino]benzoic acid
@<TRIPOS>ATOM
      1 C1         -6.5353    5.8383    4.1398 C.ar      1 <0>        -0.0713
      2 C2         -5.2457    5.3608    4.1996 C.ar      1 <0>        -0.1560
      3 C3         -4.3897    5.5267    3.1152 C.ar      1 <0>         0.1220
      4 C4         -4.8319    6.1802    1.9690 C.ar      1 <0>        -0.1319
      5 C5         -6.1219    6.6556    1.9002 C.ar      1 <0>        -0.0624
      6 C6         -6.9847    6.4907    2.9878 C.ar      1 <0>        -0.1197
      7 C7         -8.3657    7.0032    2.9199 C.2       1 <0>         0.4883
      8 O1         -9.1146    6.8588    3.8658 O.co2     1 <0>        -0.6326
      9 N1         -3.0841    5.0422    3.1794 N.am      1 <0>        -0.6612
     10 C8         -2.4985    4.5350    2.0765 C.2       1 <0>         0.5121
     11 O2         -3.0746    4.5772    1.0102 O.2       1 <0>        -0.5077
     12 C9         -1.1278    3.9155    2.1684 C.3       1 <0>        -0.1204
     13 C10        -0.6977    3.4214    0.7857 C.3       1 <0>        -0.0652
     14 H1         -0.8251    4.1993    0.0329 H         1 <0>         0.1725
     15 C11         0.7313    2.8980    0.8047 C.2       1 <0>         0.5290
     16 O3          1.6773    3.6063    1.0758 O.2       1 <0>        -0.4451
     17 N2          0.8701    1.6175    0.5047 N.am      1 <0>        -0.5392
     18 C12        -0.1649    0.8127    0.2003 C.2       1 <0>         0.5493
     19 O4         -0.1370   -0.3683   -0.0867 O.2       1 <0>        -0.4112
     20 S1         -1.5885    1.8869    0.3089 S.3       1 <0>        -0.1019
     21 C13         2.1624    1.0699    0.5041 C.ar      1 <0>         0.0850
     22 C14         2.9157    1.0696   -0.6618 C.ar      1 <0>        -0.0751
     23 C15         4.1891    0.5354   -0.6605 C.ar      1 <0>        -0.1345
     24 C16         4.7114   -0.0104    0.5030 C.ar      1 <0>         0.1253
     25 C17         3.9567   -0.0155    1.6669 C.ar      1 <0>        -0.1348
     26 C18         2.6852    0.5232    1.6680 C.ar      1 <0>        -0.0750
     27 O5          5.9632   -0.5409    0.5024 O.3       1 <0>        -0.4965
     28 H2         -7.1993    5.7089    4.9817 H         1 <0>         0.1312
     29 H3         -4.8978    4.8571    5.0893 H         1 <0>         0.1191
     30 H4         -4.1634    6.3111    1.1310 H         1 <0>         0.1323
     31 H5         -6.4657    7.1591    1.0088 H         1 <0>         0.1342
     32 H6         -2.5971    5.0700    4.0179 H         1 <0>         0.4087
     33 H7         -1.1546    3.0753    2.8623 H         1 <0>         0.1150
     34 H8         -0.4160    4.6595    2.5260 H         1 <0>         0.1287
     35 H9          2.5075    1.4904   -1.5687 H         1 <0>         0.1333
     36 H10         4.7770    0.5392   -1.5665 H         1 <0>         0.1403
     37 H11         4.3637   -0.4405    2.5725 H         1 <0>         0.1403
     38 H12         2.0979    0.5195    2.5743 H         1 <0>         0.1331
     39 H13         5.9915   -1.4821    0.2823 H         1 <0>         0.3959
     40 O6         -8.7972    7.6318    1.8088 O.co2     1 <0>        -0.7538
@<TRIPOS>BOND
     1    1    6 ar
     2    1    2 ar
     3    1   28 1
     4    2    3 ar
     5    2   29 1
     6    3    4 ar
     7    3    9 1
     8    4    5 ar
     9    4   30 1
    10    5    6 ar
    11    5   31 1
    12    6    7 1
    13    7    8 2
    14    7   40 1
    15    9   10 am
    16    9   32 1
    17   10   11 2
    18   10   12 1
    19   12   13 1
    20   12   33 1
    21   12   34 1
    22   13   14 1
    23   13   20 1
    24   13   15 1
    25   15   16 2
    26   15   17 am
    27   17   18 am
    28   17   21 1
    29   18   19 2
    30   18   20 1
    31   21   26 ar
    32   21   22 ar
    33   22   23 ar
    34   22   35 1
    35   23   24 ar
    36   23   36 1
    37   24   25 ar
    38   24   27 1
    39   25   26 ar
    40   25   37 1
    41   26   38 1
    42   27   39 1
@<TRIPOS>MOLECULE
ZINC42796478
   42    43     0     0     0
SMALL
USER_CHARGES

@<TRIPOS>ATOM
      1 C1         -2.1314   -8.6054    2.9266 C.3       1 <0>        -0.1096
      2 C2         -1.2815   -7.7057    2.0667 C.ar      1 <0>        -0.0048
      3 C3         -1.0426   -6.4034    2.4537 C.ar      1 <0>        -0.1529
      4 C4         -0.2625   -5.5760    1.6655 C.ar      1 <0>        -0.0286
      5 C5          0.2835   -6.0475    0.4843 C.ar      1 <0>        -0.6889
      6 C6          0.0528   -7.3470    0.0846 C.ar      1 <0>         0.0086
      7 C7         -0.7289   -8.1903    0.8787 C.ar      1 <0>        -0.1402
      8 C8         -0.9745   -9.5839    0.4613 C.2       1 <0>         0.5254
      9 O1         -0.7855  -10.5003    1.2487 O.co2     1 <0>        -0.6788
     10 O2         -1.3670   -9.8227   -0.6720 O.co2     1 <0>        -0.6796
     11 S1          1.2753   -4.9847   -0.5113 S.o2      1 <0>         2.6925
     12 O3          1.1203   -5.4242   -1.8537 O.2       1 <0>        -0.9515
     13 O4          0.9791   -3.6553   -0.1060 O.2       1 <0>        -0.9571
     14 N1          2.8554   -5.2635   -0.1015 N.pl3     1 <0>        -1.0566
     15 C9          3.2971   -4.9996    1.1970 C.ar      1 <0>         0.1697
     16 C10         2.9311   -3.8174    1.8296 C.ar      1 <0>        -0.1701
     17 C11         3.3677   -3.5559    3.1137 C.ar      1 <0>        -0.0753
     18 C12         4.1695   -4.4678    3.7733 C.ar      1 <0>        -0.1341
     19 C13         4.5388   -5.6512    3.1467 C.ar      1 <0>         0.1638
     20 C14         4.0970   -5.9200    1.8591 C.ar      1 <0>        -0.1472
     21 N2          5.3507   -6.5739    3.8155 N.am      1 <0>        -0.6678
     22 C15         6.0231   -7.5103    3.1172 C.2       1 <0>         0.5078
     23 O5          6.0131   -7.4860    1.9046 O.2       1 <0>        -0.5184
     24 C16         6.7874   -8.5873    3.8431 C.3       1 <0>        -0.1719
     25 C17         4.6442   -4.1778    5.1739 C.3       1 <0>        -0.1107
     26 H1         -1.4894   -9.1949    3.5811 H         1 <0>         0.0800
     27 H2         -2.8069   -7.9991    3.5300 H         1 <0>         0.0559
     28 H3         -2.7126   -9.2729    2.2904 H         1 <0>         0.0761
     29 H4         -1.4657   -6.0287    3.3740 H         1 <0>         0.1255
     30 H5         -0.0791   -4.5571    1.9733 H         1 <0>         0.1330
     31 H6          0.4792   -7.7135   -0.8375 H         1 <0>         0.1345
     32 H7          3.4742   -5.6100   -0.7632 H         1 <0>         0.4271
     33 H8          2.3052   -3.1024    1.3165 H         1 <0>         0.1581
     34 H9          3.0820   -2.6365    3.6032 H         1 <0>         0.1324
     35 H10         4.3791   -6.8415    1.3715 H         1 <0>         0.1604
     36 H11         5.4296   -6.5397    4.7817 H         1 <0>         0.4119
     37 H12         6.1351   -9.4439    4.0131 H         1 <0>         0.1009
     38 H13         7.6420   -8.8952    3.2407 H         1 <0>         0.0977
     39 H14         7.1378   -8.2018    4.8005 H         1 <0>         0.0812
     40 H15         3.9222   -4.5692    5.8906 H         1 <0>         0.0706
     41 H16         5.6113   -4.6538    5.3356 H         1 <0>         0.0593
     42 H17         4.7424   -3.1006    5.3085 H         1 <0>         0.0716
@<TRIPOS>BOND
     1    1    2 1
     2    1   26 1
     3    1   27 1
     4    1   28 1
     5    2    7 ar
     6    2    3 ar
     7    3    4 ar
     8    3   29 1
     9    4    5 ar
    10    4   30 1
    11    5    6 ar
    12    5   11 1
    13    6    7 ar
    14    6   31 1
    15    7    8 1
    16    8    9 2
    17    8   10 1
    18   11   12 2
    19   11   13 2
    20   11   14 1
    21   14   15 1
    22   14   32 1
    23   15   20 ar
    24   15   16 ar
    25   16   17 ar
    26   16   33 1
    27   17   18 ar
    28   17   34 1
    29   18   19 ar
    30   18   25 1
    31   19   20 ar
    32   19   21 1
    33   20   35 1
    34   21   22 am
    35   21   36 1
    36   22   23 2
    37   22   24 1
    38   24   37 1
    39   24   38 1
    40   24   39 1
    41   25   40 1
    42   25   41 1
    43   25   42 1
@<TRIPOS>MOLECULE
ZINC54453405
   50    51     0     0     0
SMALL
USER_CHARGES

@<TRIPOS>ATOM
      1 C1         -0.8507    1.4275    0.0726 C.3       1 <0>        -0.1111
      2 C2         -0.4654   -0.0292    0.0449 C.ar      1 <0>        -0.0692
      3 C3         -0.2157   -0.6549   -1.1629 C.ar      1 <0>        -0.1488
      4 C4          0.1380   -1.9911   -1.1925 C.ar      1 <0>        -0.0951
      5 C5          0.2431   -2.7055   -0.0149 C.ar      1 <0>        -0.1481
      6 C6         -0.0069   -2.0803    1.1993 C.ar      1 <0>         0.1755
      7 C7         -0.3566   -0.7364    1.2260 C.ar      1 <0>        -0.1607
      8 N1          0.0987   -2.8012    2.3941 N.am      1 <0>        -0.6857
      9 C8         -0.0322   -4.1426    2.3856 C.2       1 <0>         0.7069
     10 O1         -0.0719   -4.7428    1.3290 O.2       1 <0>        -0.5669
     11 N2         -0.1191   -4.8186    3.5483 N.am      1 <0>        -0.6190
     12 C9         -0.2402   -4.1005    4.8245 C.3       1 <0>         0.1108
     13 C10         0.8595   -4.5901    5.7720 C.3       1 <0>        -0.1350
     14 C11         0.7783   -6.1131    5.8976 C.3       1 <0>        -0.1022
     15 C12         1.0030   -6.7526    4.5255 C.3       1 <0>        -0.1085
     16 H1          1.9767   -6.4515    4.1388 H         1 <0>         0.0740
     17 C13        -0.1007   -6.2876    3.5634 C.3       1 <0>         0.1457
     18 C14         0.9558   -8.2532    4.6560 C.2       1 <0>         0.3540
     19 O2         -0.1556   -8.8530    5.1152 O.3       1 <0>        -0.6083
     20 C15         2.0405   -9.0021    4.3083 C.2       1 <0>        -0.4213
     21 C16         3.2248   -8.3629    3.8190 C.1       1 <0>         0.3004
     22 N3          4.1643   -7.8558    3.4308 N.1       1 <0>        -0.5424
     23 C17         1.9944  -10.4660    4.4357 C.2       1 <0>         0.5921
     24 O3          0.9883  -11.0090    4.8514 O.2       1 <0>        -0.5444
     25 N4          3.0668  -11.2064    4.0919 N.am      1 <0>        -0.7533
     26 C18         3.0209  -12.6652    4.2189 C.3       1 <0>         0.1520
     27 C19         4.3363  -13.2498    3.7728 C.2       1 <0>        -0.1620
     28 C20         5.0092  -14.0366    4.5756 C.2       1 <0>        -0.1833
     29 H2          0.0482    2.0398    0.1441 H         1 <0>         0.0686
     30 H3         -1.3893    1.6782   -0.8413 H         1 <0>         0.0654
     31 H4         -1.4897    1.6180    0.9348 H         1 <0>         0.0640
     32 H5         -0.2976   -0.0986   -2.0850 H         1 <0>         0.1179
     33 H6          0.3320   -2.4770   -2.1373 H         1 <0>         0.1230
     34 H7          0.5191   -3.7494   -0.0387 H         1 <0>         0.1651
     35 H8         -0.5470   -0.2460    2.1692 H         1 <0>         0.1207
     36 H9          0.2661   -2.3355    3.2284 H         1 <0>         0.4052
     37 H10        -0.1256   -3.0301    4.6537 H         1 <0>         0.0696
     38 H11        -1.2172   -4.2999    5.2646 H         1 <0>         0.0757
     39 H12         1.8345   -4.3093    5.3736 H         1 <0>         0.0646
     40 H13         0.7226   -4.1362    6.7535 H         1 <0>         0.0754
     41 H14         1.5442   -6.4617    6.5905 H         1 <0>         0.0659
     42 H15        -0.2057   -6.3946    6.2726 H         1 <0>         0.0752
     43 H16        -1.0666   -6.6617    3.9028 H         1 <0>         0.0817
     44 H17         0.1060   -6.6607    2.5603 H         1 <0>         0.0927
     45 H18         3.8691  -10.7734    3.7605 H         1 <0>         0.3887
     46 H19         2.8381  -12.9338    5.2593 H         1 <0>         0.0620
     47 H20         2.2182  -13.0590    3.5955 H         1 <0>         0.0668
     48 H21         4.7243  -13.0203    2.7914 H         1 <0>         0.1105
     49 H22         5.9519  -14.4556    4.2559 H         1 <0>         0.0972
     50 H23         4.6213  -14.2661    5.5570 H         1 <0>         0.0984
@<TRIPOS>BOND
     1    1    2 1
     2    1   29 1
     3    1   30 1
     4    1   31 1
     5    2    7 ar
     6    2    3 ar
     7    3    4 ar
     8    3   32 1
     9    4    5 ar
    10    4   33 1
    11    5    6 ar
    12    5   34 1
    13    6    7 ar
    14    6    8 1
    15    7   35 1
    16    8    9 am
    17    8   36 1
    18    9   10 2
    19    9   11 am
    20   11   17 1
    21   11   12 1
    22   12   13 1
    23   12   37 1
    24   12   38 1
    25   13   14 1
    26   13   39 1
    27   13   40 1
    28   14   15 1
    29   14   41 1
    30   14   42 1
    31   15   16 1
    32   15   17 1
    33   15   18 1
    34   17   43 1
    35   17   44 1
    36   18   19 1
    37   18   20 2
    38   20   21 1
    39   20   23 1
    40   21   22 3
    41   23   24 2
    42   23   25 am
    43   25   26 1
    44   25   45 1
    45   26   27 1
    46   26   46 1
    47   26   47 1
    48   27   28 2
    49   27   48 1
    50   28   49 1
    51   28   50 1
@<TRIPOS>MOLECULE
ZINC18136703
   45    48     0     0     0
SMALL
USER_CHARGES

@<TRIPOS>ATOM
      1 C1          0.1972    1.1881    1.7810 C.ar      1 <0>        -0.1057
      2 C2          1.3963    1.8558    1.9841 C.ar      1 <0>        -0.1316
      3 C3          2.5880    1.1906    1.7606 C.ar      1 <0>        -0.0505
      4 C4          2.5663   -0.1164    1.3425 C.ar      1 <0>        -0.2018
      5 C5          1.3646   -0.8282    1.1253 C.ar      1 <0>         0.1303
      6 C6          0.1659   -0.1168    1.3635 C.ar      1 <0>        -0.0911
      7 N1          1.5079   -2.1069    0.7143 N.2       1 <0>        -0.5861
      8 C7          2.6840   -2.6599    0.5265 C.2       1 <0>         0.4142
      9 N2          2.9820   -3.9455    0.1120 N.pl3     1 <0>        -0.6115
     10 C8          4.2894   -4.2959   -0.1676 C.2       1 <0>         0.5741
     11 N3          4.6034   -5.5918   -0.4384 N.2       1 <0>        -0.6689
     12 C9          5.8370   -5.9224   -0.7022 C.2       1 <0>         0.4134
     13 O1          6.7989   -4.9824   -0.7064 O.3       1 <0>        -0.6479
     14 C10         6.1847   -7.3577   -1.0022 C.3       1 <0>         0.1395
     15 N4          4.9727   -8.1780   -0.9356 N.am      1 <0>        -0.5645
     16 C11         4.5386   -8.7773    0.2061 C.2       1 <0>         0.5545
     17 O2          5.1566   -8.9115    1.2403 O.2       1 <0>        -0.4814
     18 C12         3.1434   -9.2364   -0.0748 C.3       1 <0>        -0.1300
     19 H1          2.4429   -8.4197    0.0996 H         1 <0>         0.1239
     20 C13         2.6270  -10.5010    0.5698 C.3       1 <0>        -0.0958
     21 C14         1.1991  -10.7188    0.0360 C.3       1 <0>        -0.1196
     22 C15         1.1587  -10.7804   -1.4869 C.3       1 <0>        -0.1177
     23 C16         1.8381   -9.5545   -2.1297 C.3       1 <0>        -0.0974
     24 C17         3.2529   -9.5230   -1.6021 C.3       1 <0>        -0.1311
     25 H2          3.7252  -10.4914   -1.7669 H         1 <0>         0.1168
     26 C18         4.1684   -8.4100   -2.0080 C.2       1 <0>         0.5489
     27 O3          4.1904   -7.8342   -3.0745 O.2       1 <0>        -0.4698
     28 N5          5.2237   -3.3829   -0.1717 N.2       1 <0>        -0.7111
     29 S1          3.8018   -1.3290    0.9429 S.3       1 <0>         0.0338
     30 H3         -0.7327    1.7072    1.9602 H         1 <0>         0.1253
     31 H4          1.3991    2.8845    2.3129 H         1 <0>         0.1293
     32 H5          3.5297    1.6966    1.9139 H         1 <0>         0.1259
     33 H6         -0.7847   -0.6073    1.2149 H         1 <0>         0.1251
     34 H7          6.6153   -7.4260   -2.0012 H         1 <0>         0.1008
     35 H8          6.9074   -7.7172   -0.2697 H         1 <0>         0.1043
     36 H9          3.2604  -11.3447    0.2956 H         1 <0>         0.0707
     37 H10         2.6064  -10.3855    1.6535 H         1 <0>         0.0782
     38 H11         0.8096  -11.6539    0.4386 H         1 <0>         0.0664
     39 H12         0.5658   -9.8987    0.3741 H         1 <0>         0.0650
     40 H13         1.6696  -11.6841   -1.8192 H         1 <0>         0.0626
     41 H14         0.1195  -10.8217   -1.8129 H         1 <0>         0.0672
     42 H15         1.8452   -9.6562   -3.2149 H         1 <0>         0.0775
     43 H16         1.3158   -8.6424   -1.8411 H         1 <0>         0.0752
     44 H17         4.9939   -2.4530   -0.0185 H         1 <0>         0.2780
     45 H18         2.2734   -4.6011    0.0174 H         1 <0>         0.4125
@<TRIPOS>BOND
     1    1    6 ar
     2    1    2 ar
     3    1   30 1
     4    2    3 ar
     5    2   31 1
     6    3    4 ar
     7    3   32 1
     8    4   29 1
     9    4    5 ar
    10    5    6 ar
    11    5    7 1
    12    6   33 1
    13    7    8 2
    14    8    9 1
    15    8   29 1
    16    9   45 1
    17    9   10 1
    18   10   28 2
    19   10   11 1
    20   11   12 2
    21   12   13 1
    22   12   14 1
    23   14   15 1
    24   14   34 1
    25   14   35 1
    26   15   26 am
    27   15   16 am
    28   16   17 2
    29   16   18 1
    30   18   19 1
    31   18   24 1
    32   18   20 1
    33   20   21 1
    34   20   36 1
    35   20   37 1
    36   21   22 1
    37   21   38 1
    38   21   39 1
    39   22   23 1
    40   22   40 1
    41   22   41 1
    42   23   24 1
    43   23   42 1
    44   23   43 1
    45   24   25 1
    46   24   26 1
    47   26   27 2
    48   28   44 1
@<TRIPOS>MOLECULE
ZINC65633903
   37    39     0     0     0
SMALL
USER_CHARGES

@<TRIPOS>ATOM
      1 C1         -0.0225    1.8097    0.0120 C.3       1 <0>        -0.6364
      2 S1          0.0021   -0.0041    0.0020 S.o2      1 <0>         2.5256
      3 O1          0.8352   -0.4880    1.0465 O.2       1 <0>        -1.0301
      4 O2         -1.3147   -0.5105   -0.1678 O.2       1 <0>        -1.0300
      5 N1          0.7947   -0.4113   -1.3938 N.2       1 <0>        -1.0985
      6 C2          0.9924   -1.7582   -1.7189 C.ar      1 <0>         0.2689
      7 C3          0.5174   -2.7537   -0.8711 C.ar      1 <0>        -0.2129
      8 C4          0.7082   -4.0843   -1.1835 C.ar      1 <0>        -0.0996
      9 C5          1.3758   -4.4384   -2.3464 C.ar      1 <0>         0.0531
     10 C6          1.8566   -3.4418   -3.2053 C.ar      1 <0>        -0.1258
     11 C7          1.6550   -2.0968   -2.8858 C.ar      1 <0>        -0.1395
     12 C8          2.5681   -3.8109   -4.4440 C.2       1 <0>         0.5694
     13 O3          2.7383   -4.9824   -4.7213 O.2       1 <0>        -0.5337
     14 N2          3.0294   -2.8494   -5.2682 N.am      1 <0>        -0.7288
     15 C9          3.7359   -3.2158   -6.4981 C.3       1 <0>         0.2096
     16 C10         4.1441   -1.9659   -7.2344 C.2       1 <0>         0.0261
     17 C11         5.3406   -1.3608   -7.1521 C.2       1 <0>        -0.0171
     18 N3          5.3091   -0.2448   -7.9840 N.pl3     1 <0>        -0.4383
     19 C12         6.1499    0.7783   -8.3645 C.2       1 <0>         0.0323
     20 C13         5.7442    1.7104   -9.2255 C.2       1 <0>        -0.1804
     21 S2          4.0731    1.1861   -9.5760 S.3       1 <0>         0.1247
     22 C14         4.0532   -0.2516   -8.5311 C.2       1 <0>         0.1745
     23 N4          3.3761   -1.2716   -8.0881 N.2       1 <0>        -0.4257
     24 O4          1.5632   -5.7479   -2.6513 O.3       1 <0>        -0.4820
     25 H1          1.0001    2.1870    0.0043 H         1 <0>         0.1149
     26 H2         -0.5497    2.1708   -0.8711 H         1 <0>         0.1154
     27 H3         -0.5327    2.1613    0.9088 H         1 <0>         0.1015
     28 H4         -0.0029   -2.4839    0.0360 H         1 <0>         0.1095
     29 H5          0.3370   -4.8519   -0.5205 H         1 <0>         0.1157
     30 H6          2.0195   -1.3232   -3.5454 H         1 <0>         0.1172
     31 H7          2.8937   -1.9148   -5.0469 H         1 <0>         0.4045
     32 H8          4.6238   -3.7965   -6.2479 H         1 <0>         0.0849
     33 H9          3.0784   -3.8119   -7.1310 H         1 <0>         0.0848
     34 H10         6.1766   -1.6820   -6.5485 H         1 <0>         0.1867
     35 H11         7.1500    0.8255   -7.9595 H         1 <0>         0.1740
     36 H12         6.2851    2.5618   -9.6113 H         1 <0>         0.2162
     37 H13         0.8504   -6.1351   -3.1777 H         1 <0>         0.3693
@<TRIPOS>BOND
     1    1    2 1
     2    1   25 1
     3    1   26 1
     4    1   27 1
     5    2    3 2
     6    2    4 2
     7    2    5 1
     8    5    6 1
     9    6   11 ar
    10    6    7 ar
    11    7    8 ar
    12    7   28 1
    13    8    9 ar
    14    8   29 1
    15    9   10 ar
    16    9   24 1
    17   10   11 ar
    18   10   12 1
    19   11   30 1
    20   12   13 2
    21   12   14 am
    22   14   15 1
    23   14   31 1
    24   15   16 1
    25   15   32 1
    26   15   33 1
    27   16   23 1
    28   16   17 2
    29   17   18 1
    30   17   34 1
    31   18   22 1
    32   18   19 1
    33   19   20 2
    34   19   35 1
    35   20   21 1
    36   20   36 1
    37   21   22 1
    38   22   23 2
    39   24   37 1
@<TRIPOS>MOLECULE
ZINC03022256
   56    58     0     0     0
SMALL
USER_CHARGES
N-(4-ethylphenyl)-4-fluoro-3-[(2-methylcyclohexyl)sulfamoyl]benzamide
@<TRIPOS>ATOM
      1 C1          6.4348    2.6468   12.3543 C.3       1 <0>        -0.1474
      2 C2          5.8446    3.6978   11.4120 C.3       1 <0>        -0.0860
      3 C3          5.4154    3.0366   10.1277 C.ar      1 <0>        -0.0913
      4 C4          4.1312    2.5389   10.0035 C.ar      1 <0>        -0.0992
      5 C5          3.7347    1.9323    8.8279 C.ar      1 <0>        -0.1145
      6 C6          4.6274    1.8224    7.7695 C.ar      1 <0>         0.1330
      7 C7          5.9183    2.3182    7.8995 C.ar      1 <0>        -0.1384
      8 C8          6.3068    2.9284    9.0760 C.ar      1 <0>        -0.0998
      9 N1          4.2291    1.2088    6.5776 N.am      1 <0>        -0.6675
     10 C9          2.9634    1.3509    6.1368 C.2       1 <0>         0.5617
     11 O1          2.1457    1.9410    6.8160 O.2       1 <0>        -0.5046
     12 C10         2.5697    0.7896    4.8286 C.ar      1 <0>        -0.1650
     13 C11         3.5070    0.1108    4.0464 C.ar      1 <0>        -0.0046
     14 C12         3.1341   -0.4113    2.8267 C.ar      1 <0>        -0.1737
     15 C13         1.8297   -0.2686    2.3781 C.ar      1 <0>         0.2244
     16 C14         0.8968    0.4091    3.1478 C.ar      1 <0>        -0.7215
     17 C15         1.2590    0.9353    4.3694 C.ar      1 <0>         0.0696
     18 S1         -0.7566    0.5920    2.5668 S.o2      1 <0>         2.6930
     19 O2         -1.4539    1.3386    3.5546 O.2       1 <0>        -0.9462
     20 O3         -1.1829   -0.6956    2.1431 O.2       1 <0>        -0.9386
     21 N2         -0.6970    1.5409    1.2109 N.pl3     1 <0>        -1.1018
     22 C16        -0.0128    1.0583    0.0087 C.3       1 <0>         0.1436
     23 H1         -0.0018   -0.0317    0.0097 H         1 <0>         0.1048
     24 C17         1.4244    1.5828   -0.0055 C.3       1 <0>        -0.1418
     25 C18         1.4089    3.1127   -0.0069 C.3       1 <0>        -0.1192
     26 C19         0.6708    3.6141   -1.2497 C.3       1 <0>        -0.1211
     27 C20        -0.7664    3.0896   -1.2356 C.3       1 <0>        -0.1172
     28 C21        -0.7510    1.5597   -1.2341 C.3       1 <0>        -0.0906
     29 H2         -0.2420    1.2006   -2.1286 H         1 <0>         0.0861
     30 C22        -2.1882    1.0352   -1.2200 C.3       1 <0>        -0.1521
     31 F1          1.4679   -0.7875    1.1843 F         1 <0>        -0.1110
     32 H3          7.2976    2.1781   11.8810 H         1 <0>         0.0553
     33 H4          6.7453    3.1251   13.2833 H         1 <0>         0.0586
     34 H5          5.6821    1.8885   12.5700 H         1 <0>         0.0559
     35 H6          6.5973    4.4561   11.1964 H         1 <0>         0.0721
     36 H7          4.9818    4.1666   11.8853 H         1 <0>         0.0726
     37 H8          3.4377    2.6243   10.8270 H         1 <0>         0.1265
     38 H9          2.7317    1.5435    8.7317 H         1 <0>         0.1399
     39 H10         6.6162    2.2304    7.0799 H         1 <0>         0.1255
     40 H11         7.3091    3.3178    9.1762 H         1 <0>         0.1267
     41 H12         4.8637    0.6810    6.0682 H         1 <0>         0.4094
     42 H13         4.5221   -0.0044    4.3967 H         1 <0>         0.1466
     43 H14         3.8581   -0.9361    2.2210 H         1 <0>         0.1576
     44 H15         0.5303    1.4590    4.9704 H         1 <0>         0.1690
     45 H16        -1.1150    2.4162    1.2127 H         1 <0>         0.4210
     46 H17         1.9503    1.2256    0.8799 H         1 <0>         0.0584
     47 H18         1.9334    1.2237   -0.9000 H         1 <0>         0.0805
     48 H19         0.8999    3.4718    0.8875 H         1 <0>         0.0638
     49 H20         2.4328    3.4864   -0.0170 H         1 <0>         0.0629
     50 H21         0.6598    4.7041   -1.2508 H         1 <0>         0.0638
     51 H22         1.1798    3.2551   -2.1442 H         1 <0>         0.0641
     52 H23        -1.2755    3.4487   -0.3411 H         1 <0>         0.0625
     53 H24        -1.2923    3.4468   -2.1210 H         1 <0>         0.0682
     54 H25        -2.6972    1.3942   -0.3255 H         1 <0>         0.0568
     55 H26        -2.7141    1.3924   -2.1054 H         1 <0>         0.0586
     56 H27        -2.1772   -0.0548   -1.2189 H         1 <0>         0.0607
@<TRIPOS>BOND
     1    1    2 1
     2    1   32 1
     3    1   33 1
     4    1   34 1
     5    2    3 1
     6    2   35 1
     7    2   36 1
     8    3    8 ar
     9    3    4 ar
    10    4    5 ar
    11    4   37 1
    12    5    6 ar
    13    5   38 1
    14    6    7 ar
    15    6    9 1
    16    7    8 ar
    17    7   39 1
    18    8   40 1
    19    9   10 am
    20    9   41 1
    21   10   11 2
    22   10   12 1
    23   12   17 ar
    24   12   13 ar
    25   13   14 ar
    26   13   42 1
    27   14   15 ar
    28   14   43 1
    29   15   16 ar
    30   15   31 1
    31   16   17 ar
    32   16   18 1
    33   17   44 1
    34   18   19 2
    35   18   20 2
    36   18   21 1
    37   21   22 1
    38   21   45 1
    39   22   23 1
    40   22   28 1
    41   22   24 1
    42   24   25 1
    43   24   46 1
    44   24   47 1
    45   25   26 1
    46   25   48 1
    47   25   49 1
    48   26   27 1
    49   26   50 1
    50   26   51 1
    51   27   28 1
    52   27   52 1
    53   27   53 1
    54   28   29 1
    55   28   30 1
    56   30   54 1
    57   30   55 1
    58   30   56 1
@<TRIPOS>MOLECULE
ZINC12911646
   62    64     0     0     0
SMALL
USER_CHARGES
N-methyl-4-[(E)-[(3Z)-3-[[4-(methylcarbamoyl)phenyl]methylene]-2-oxo-5-propyl-cyclohexylidene]methyl]benzamide
@<TRIPOS>ATOM
      1 C1         -2.7099    4.3341    0.7808 C.3       1 <0>        -0.1549
      2 C2         -1.5419    3.5303    1.3556 C.3       1 <0>        -0.1268
      3 C3         -1.2638    2.3222    0.4589 C.3       1 <0>        -0.1157
      4 C4         -0.0957    1.5185    1.0338 C.3       1 <0>        -0.0818
      5 C5          0.1003    0.2450    0.2068 C.3       1 <0>        -0.0837
      6 C6          1.2492   -0.5495    0.7945 C.2       1 <0>        -0.1719
      7 C7          1.1357   -1.8659    1.0673 C.2       1 <0>        -0.0558
      8 C8         -0.0590   -2.6072    0.6325 C.ar      1 <0>        -0.0386
      9 C9         -0.6274   -3.5730    1.4706 C.ar      1 <0>        -0.1077
     10 C10        -1.7475   -4.2621    1.0649 C.ar      1 <0>        -0.0868
     11 C11        -2.3110   -4.0050   -0.1873 C.ar      1 <0>        -0.1289
     12 C12        -1.7415   -3.0449   -1.0271 C.ar      1 <0>        -0.0593
     13 C13        -0.6242   -2.3510   -0.6218 C.ar      1 <0>        -0.1079
     14 C14        -3.5111   -4.7501   -0.6243 C.2       1 <0>         0.5550
     15 O1         -4.0016   -4.5271   -1.7138 O.2       1 <0>        -0.5319
     16 N1         -4.0611   -5.6765    0.1855 N.am      1 <0>        -0.7315
     17 C15        -5.2501   -6.4148   -0.2474 C.3       1 <0>         0.0858
     18 C16         2.5039    0.1958    1.0544 C.2       1 <0>         0.4279
     19 O2          3.6046   -0.2857    0.8512 O.2       1 <0>        -0.4249
     20 C17         2.3213    1.5700    1.5794 C.2       1 <0>        -0.1757
     21 C18         3.1323    2.0809    2.5289 C.2       1 <0>        -0.0521
     22 C19         4.1169    1.2163    3.1987 C.ar      1 <0>        -0.0383
     23 C20         3.8091   -0.1235    3.4606 C.ar      1 <0>        -0.1029
     24 C21         4.7329   -0.9323    4.0823 C.ar      1 <0>        -0.0831
     25 C22         5.9731   -0.4136    4.4619 C.ar      1 <0>        -0.1305
     26 C23         6.2797    0.9250    4.2058 C.ar      1 <0>        -0.0579
     27 C24         5.3598    1.7347    3.5795 C.ar      1 <0>        -0.1064
     28 C25         6.9625   -1.2823    5.1348 C.2       1 <0>         0.5568
     29 O3          8.0420   -0.8317    5.4649 O.2       1 <0>        -0.5330
     30 N2          6.6673   -2.5739    5.3822 N.am      1 <0>        -0.7320
     31 C26         7.6476   -3.4346    6.0489 C.3       1 <0>         0.0864
     32 C27         1.1756    2.3706    0.9940 C.3       1 <0>        -0.0734
     33 H1         -2.4563    4.6769   -0.2223 H         1 <0>         0.0541
     34 H2         -3.5977    3.7032    0.7355 H         1 <0>         0.0537
     35 H3         -2.9080    5.1947    1.4196 H         1 <0>         0.0540
     36 H4         -1.7955    3.1875    2.3588 H         1 <0>         0.0618
     37 H5         -0.6541    4.1612    1.4009 H         1 <0>         0.0641
     38 H6         -1.0102    2.6650   -0.5442 H         1 <0>         0.0664
     39 H7         -2.1515    1.6914    0.4137 H         1 <0>         0.0674
     40 H8         -0.3181    1.2486    2.0662 H         1 <0>         0.0787
     41 H9         -0.8103   -0.3534    0.2365 H         1 <0>         0.0896
     42 H10         0.3286    0.5114   -0.8252 H         1 <0>         0.0816
     43 H11         1.9217   -2.3757    1.6047 H         1 <0>         0.1329
     44 H12        -0.1893   -3.7751    2.4369 H         1 <0>         0.1336
     45 H13        -2.1888   -5.0046    1.7132 H         1 <0>         0.1289
     46 H14        -2.1779   -2.8474   -1.9950 H         1 <0>         0.1406
     47 H15        -0.1837   -1.6093   -1.2716 H         1 <0>         0.1364
     48 H16        -3.6697   -5.8545    1.0550 H         1 <0>         0.4016
     49 H17        -6.0636   -5.7144   -0.4370 H         1 <0>         0.0627
     50 H18        -5.0238   -6.9646   -1.1610 H         1 <0>         0.0627
     51 H19        -5.5477   -7.1145    0.5335 H         1 <0>         0.0783
     52 H20         3.0588    3.1244    2.7974 H         1 <0>         0.1417
     53 H21         2.8484   -0.5235    3.1716 H         1 <0>         0.1201
     54 H22         4.4972   -1.9675    4.2805 H         1 <0>         0.1259
     55 H23         7.2390    1.3248    4.4997 H         1 <0>         0.1400
     56 H24         5.5971    2.7695    3.3816 H         1 <0>         0.1352
     57 H25         5.8059   -2.9336    5.1187 H         1 <0>         0.4011
     58 H26         7.8817   -3.0252    7.0316 H         1 <0>         0.0625
     59 H27         7.2338   -4.4367    6.1620 H         1 <0>         0.0777
     60 H28         8.5565   -3.4824    5.4492 H         1 <0>         0.0624
     61 H29         1.4052    2.6357   -0.0380 H         1 <0>         0.0810
     62 H30         1.0261    3.2769    1.5809 H         1 <0>         0.0847
@<TRIPOS>BOND
     1    1    2 1
     2    1   33 1
     3    1   34 1
     4    1   35 1
     5    2    3 1
     6    2   36 1
     7    2   37 1
     8    3    4 1
     9    3   38 1
    10    3   39 1
    11    4   32 1
    12    4    5 1
    13    4   40 1
    14    5    6 1
    15    5   41 1
    16    5   42 1
    17    6    7 2
    18    6   18 1
    19    7    8 1
    20    7   43 1
    21    8   13 ar
    22    8    9 ar
    23    9   10 ar
    24    9   44 1
    25   10   11 ar
    26   10   45 1
    27   11   12 ar
    28   11   14 1
    29   12   13 ar
    30   12   46 1
    31   13   47 1
    32   14   15 2
    33   14   16 am
    34   16   17 1
    35   16   48 1
    36   17   49 1
    37   17   50 1
    38   17   51 1
    39   18   19 2
    40   18   20 1
    41   20   21 2
    42   20   32 1
    43   21   22 1
    44   21   52 1
    45   22   27 ar
    46   22   23 ar
    47   23   24 ar
    48   23   53 1
    49   24   25 ar
    50   24   54 1
    51   25   26 ar
    52   25   28 1
    53   26   27 ar
    54   26   55 1
    55   27   56 1
    56   28   29 2
    57   28   30 am
    58   30   31 1
    59   30   57 1
    60   31   58 1
    61   31   59 1
    62   31   60 1
    63   32   61 1
    64   32   62 1
@<TRIPOS>MOLECULE
ZINC27548552
   58    60     0     0     0
SMALL
USER_CHARGES
N-[(E)-2-(4-dimethylaminophenyl)-1-(p-tolylcarbamoyl)vinyl]-2-methyl-benzamide
@<TRIPOS>ATOM
      1 C1         -6.9816    9.6111    0.3411 C.3       1 <0>        -0.1143
      2 C2         -6.7040    8.1300    0.3230 C.ar      1 <0>        -0.1060
      3 C3         -5.9543    7.5811   -0.7012 C.ar      1 <0>        -0.1010
      4 C4         -5.6984    6.2241   -0.7211 C.ar      1 <0>        -0.1188
      5 C5         -6.1947    5.4105    0.2895 C.ar      1 <0>         0.1514
      6 C6         -6.9518    5.9643    1.3139 C.ar      1 <0>        -0.1426
      7 C7         -7.1992    7.3229    1.3308 C.ar      1 <0>        -0.1013
      8 N1         -5.9375    4.0364    0.2725 N.am      1 <0>        -0.6705
      9 C8         -4.7680    3.5756   -0.2139 C.2       1 <0>         0.5594
     10 O1         -3.8980    4.3578   -0.5491 O.2       1 <0>        -0.5050
     11 C9         -4.5437    2.1306   -0.3393 C.2       1 <0>         0.0191
     12 C10        -3.3342    1.6646   -0.7331 C.2       1 <0>         0.0021
     13 C11        -2.1676    2.5575   -0.7336 C.ar      1 <0>        -0.1425
     14 C12        -1.2353    2.4939   -1.7763 C.ar      1 <0>        -0.0392
     15 C13        -0.1469    3.3362   -1.7757 C.ar      1 <0>        -0.2142
     16 C14         0.0308    4.2464   -0.7377 C.ar      1 <0>         0.2365
     17 C15        -0.8908    4.3094    0.3036 C.ar      1 <0>        -0.2065
     18 C16        -1.9818    3.4706    0.3114 C.ar      1 <0>         0.0231
     19 N2          1.1336    5.0969   -0.7412 N.pl3     1 <0>        -0.6337
     20 C17         2.1046    5.0327   -1.8364 C.3       1 <0>         0.0914
     21 C18         1.3227    6.0557    0.3502 C.3       1 <0>         0.0908
     22 N3         -5.5793    1.2343   -0.0521 N.am      1 <0>        -0.6870
     23 C19        -6.0889    1.1702    1.1940 C.2       1 <0>         0.5571
     24 O2         -5.7151    1.9543    2.0447 O.2       1 <0>        -0.5147
     25 C20        -7.1022    0.1467    1.5264 C.ar      1 <0>        -0.1448
     26 C21        -7.5041   -0.7807    0.5633 C.ar      1 <0>        -0.0796
     27 C22        -8.4469   -1.7359    0.8813 C.ar      1 <0>        -0.1345
     28 C23        -9.0013   -1.7703    2.1488 C.ar      1 <0>        -0.0842
     29 C24        -8.6113   -0.8510    3.1062 C.ar      1 <0>        -0.1304
     30 C25        -7.6656    0.1067    2.8027 C.ar      1 <0>        -0.0187
     31 C26        -7.2424    1.1077    3.8467 C.3       1 <0>        -0.1130
     32 H1         -6.5106   10.0831   -0.5338 H         1 <0>         0.0639
     33 H2         -6.5688   10.0503    1.2613 H         1 <0>         0.0679
     34 H3         -8.0679    9.7809    0.3090 H         1 <0>         0.0679
     35 H4         -5.5688    8.2142   -1.4866 H         1 <0>         0.1224
     36 H5         -5.1129    5.7960   -1.5212 H         1 <0>         0.1321
     37 H6         -7.3432    5.3337    2.0986 H         1 <0>         0.1228
     38 H7         -7.7837    7.7549    2.1296 H         1 <0>         0.1237
     39 H8         -6.6896    3.3313    0.6561 H         1 <0>         0.4261
     40 H9         -3.2256    0.6176   -1.0525 H         1 <0>         0.1378
     41 H10        -1.3723    1.7880   -2.5821 H         1 <0>         0.1203
     42 H11         0.5702    3.2912   -2.5820 H         1 <0>         0.1199
     43 H12        -0.7492    5.0174    1.1068 H         1 <0>         0.1178
     44 H13        -2.6963    3.5202    1.1198 H         1 <0>         0.1125
     45 H14         2.8991    5.7742   -1.6660 H         1 <0>         0.0740
     46 H15         1.5983    5.2500   -2.7885 H         1 <0>         0.0555
     47 H16         2.5454    4.0257   -1.8770 H         1 <0>         0.0556
     48 H17         2.2410    6.6351    0.1742 H         1 <0>         0.0741
     49 H18         1.4081    5.5138    1.3036 H         1 <0>         0.0556
     50 H19         0.4610    6.7381    0.3922 H         1 <0>         0.0561
     51 H20        -5.9774    0.5821   -0.8433 H         1 <0>         0.4269
     52 H21        -7.0749   -0.7526   -0.4274 H         1 <0>         0.1265
     53 H22        -8.7562   -2.4560    0.1382 H         1 <0>         0.1301
     54 H23        -9.7419   -2.5179    2.3915 H         1 <0>         0.1289
     55 H24        -9.0484   -0.8828    4.0933 H         1 <0>         0.1309
     56 H25        -7.7919    0.9180    4.7806 H         1 <0>         0.0590
     57 H26        -7.4643    2.1246    3.4908 H         1 <0>         0.0797
     58 H27        -6.1622    1.0111    4.0307 H         1 <0>         0.0838
@<TRIPOS>BOND
     1    1    2 1
     2    1   32 1
     3    1   33 1
     4    1   34 1
     5    2    7 ar
     6    2    3 ar
     7    3    4 ar
     8    3   35 1
     9    4    5 ar
    10    4   36 1
    11    5    6 ar
    12    5    8 1
    13    6    7 ar
    14    6   37 1
    15    7   38 1
    16    8    9 am
    17    8   39 1
    18    9   10 2
    19    9   11 1
    20   11   12 2
    21   11   22 1
    22   12   13 1
    23   12   40 1
    24   13   18 ar
    25   13   14 ar
    26   14   15 ar
    27   14   41 1
    28   15   16 ar
    29   15   42 1
    30   16   17 ar
    31   16   19 1
    32   17   18 ar
    33   17   43 1
    34   18   44 1
    35   19   20 1
    36   19   21 1
    37   20   45 1
    38   20   46 1
    39   20   47 1
    40   21   48 1
    41   21   49 1
    42   21   50 1
    43   22   23 am
    44   22   51 1
    45   23   24 2
    46   23   25 1
    47   25   30 ar
    48   25   26 ar
    49   26   27 ar
    50   26   52 1
    51   27   28 ar
    52   27   53 1
    53   28   29 ar
    54   28   54 1
    55   29   30 ar
    56   29   55 1
    57   30   31 1
    58   31   56 1
    59   31   57 1
    60   31   58 1
@<TRIPOS>MOLECULE
ZINC45818579
   54    57     0     0     0
SMALL
USER_CHARGES

@<TRIPOS>ATOM
      1 C1          1.0708   -0.4546   -0.7664 C.ar      1 <0>        -0.0774
      2 C2          2.2562    0.2535   -0.7800 C.ar      1 <0>        -0.1207
      3 C3          2.3791    1.4153   -0.0319 C.ar      1 <0>         0.1140
      4 C4          1.3114    1.8664    0.7303 C.ar      1 <0>        -0.1861
      5 C5          0.1256    1.1590    0.7451 C.ar      1 <0>        -0.1000
      6 C6          0.0017   -0.0036   -0.0037 C.ar      1 <0>         0.1130
      7 N1         -1.2015   -0.7214    0.0101 N.am      1 <0>        -0.6666
      8 C7         -1.1861   -2.0646   -0.0990 C.2       1 <0>         0.5107
      9 O1         -0.1294   -2.6599   -0.1128 O.2       1 <0>        -0.5148
     10 C8         -2.4819   -2.8270   -0.2037 C.3       1 <0>         0.1007
     11 N2         -2.1979   -4.2601   -0.3113 N.am      1 <0>        -0.7203
     12 C9         -3.2118   -5.1419   -0.4166 C.2       1 <0>         0.5278
     13 O2         -4.3591   -4.7489   -0.4222 O.2       1 <0>        -0.5353
     14 C10        -2.9197   -6.6162   -0.5273 C.3       1 <0>        -0.0665
     15 C11        -2.0728   -6.8761   -1.7747 C.3       1 <0>        -0.1012
     16 C12        -1.7763   -8.3729   -1.8871 C.3       1 <0>        -0.0840
     17 C13        -3.0918   -9.1468   -1.9935 C.3       1 <0>        -0.1106
     18 C14        -3.9387   -8.8869   -0.7460 C.3       1 <0>        -0.0869
     19 C15        -4.2352   -7.3902   -0.6336 C.3       1 <0>        -0.0872
     20 C16        -3.1735   -9.3499    0.4954 C.3       1 <0>        -0.1106
     21 C17        -1.8580   -8.5759    0.6018 C.3       1 <0>        -0.0840
     22 C18        -1.0111   -8.8358   -0.6457 C.3       1 <0>        -0.1107
     23 C19        -2.1545   -7.0792    0.7141 C.3       1 <0>        -0.1013
     24 O3          3.5467    2.1118   -0.0453 O.3       1 <0>        -0.2992
     25 C20         3.6032    3.2989    0.7483 C.3       1 <0>         0.0135
     26 C21         4.9846    3.9414    0.6073 C.3       1 <0>         0.4655
     27 F1          5.2132    4.2659   -0.7342 F         1 <0>        -0.1723
     28 F2          5.0399    5.1035    1.3842 F         1 <0>        -0.1705
     29 F3          5.9638    3.0421    1.0429 F         1 <0>        -0.1722
     30 H1          0.9737   -1.3566   -1.3524 H         1 <0>         0.1444
     31 H2          3.0879   -0.0973   -1.3729 H         1 <0>         0.1399
     32 H3          1.4078    2.7709    1.3125 H         1 <0>         0.1345
     33 H4         -0.7053    1.5100    1.3391 H         1 <0>         0.1337
     34 H5         -2.0455   -0.2515    0.0982 H         1 <0>         0.4156
     35 H6         -3.0852   -2.6418    0.6850 H         1 <0>         0.1033
     36 H7         -3.0270   -2.4971   -1.0881 H         1 <0>         0.1048
     37 H8         -1.2803   -4.5744   -0.3068 H         1 <0>         0.4126
     38 H9         -2.6179   -6.5463   -2.6591 H         1 <0>         0.0684
     39 H10        -1.1356   -6.3247   -1.6990 H         1 <0>         0.0675
     40 H11        -1.1729   -8.5580   -2.7758 H         1 <0>         0.0752
     41 H12        -3.6369   -8.8170   -2.8779 H         1 <0>         0.0634
     42 H13        -2.8805  -10.2131   -2.0735 H         1 <0>         0.0649
     43 H14        -4.8759   -9.4383   -0.8218 H         1 <0>         0.0749
     44 H15        -4.8386   -7.2050    0.2551 H         1 <0>         0.0698
     45 H16        -4.7803   -7.0603   -1.5181 H         1 <0>         0.0699
     46 H17        -3.7769   -9.1647    1.3841 H         1 <0>         0.0633
     47 H18        -2.9623  -10.4162    0.4153 H         1 <0>         0.0649
     48 H19        -1.3129   -8.9057    1.4862 H         1 <0>         0.0751
     49 H20        -0.7999   -9.9021   -0.7258 H         1 <0>         0.0658
     50 H21        -0.0739   -8.2844   -0.5699 H         1 <0>         0.0641
     51 H22        -1.2173   -6.5278    0.7899 H         1 <0>         0.0675
     52 H23        -2.7579   -6.8940    1.6028 H         1 <0>         0.0683
     53 H24         2.8403    3.9995    0.4088 H         1 <0>         0.1107
     54 H25         3.4251    3.0460    1.7934 H         1 <0>         0.1105
@<TRIPOS>BOND
     1    1    6 ar
     2    1    2 ar
     3    1   30 1
     4    2    3 ar
     5    2   31 1
     6    3    4 ar
     7    3   24 1
     8    4    5 ar
     9    4   32 1
    10    5    6 ar
    11    5   33 1
    12    6    7 1
    13    7    8 am
    14    7   34 1
    15    8    9 2
    16    8   10 1
    17   10   11 1
    18   10   35 1
    19   10   36 1
    20   11   12 am
    21   11   37 1
    22   12   13 2
    23   12   14 1
    24   14   19 1
    25   14   23 1
    26   14   15 1
    27   15   16 1
    28   15   38 1
    29   15   39 1
    30   16   22 1
    31   16   17 1
    32   16   40 1
    33   17   18 1
    34   17   41 1
    35   17   42 1
    36   18   19 1
    37   18   20 1
    38   18   43 1
    39   19   44 1
    40   19   45 1
    41   20   21 1
    42   20   46 1
    43   20   47 1
    44   21   22 1
    45   21   23 1
    46   21   48 1
    47   22   49 1
    48   22   50 1
    49   23   51 1
    50   23   52 1
    51   24   25 1
    52   25   26 1
    53   25   53 1
    54   25   54 1
    55   26   27 1
    56   26   28 1
    57   26   29 1
@<TRIPOS>MOLECULE
ZINC56446597
   56    57     0     0     0
SMALL
USER_CHARGES

@<TRIPOS>ATOM
      1 C1         -2.4519    1.8375   -0.9093 C.3       1 <0>        -0.1534
      2 C2         -2.2750    0.4400   -0.3121 C.3       1 <0>        -0.1129
      3 C3         -2.1679   -0.5872   -1.4410 C.3       1 <0>        -0.1094
      4 C4         -0.8940   -0.3275   -2.2476 C.3       1 <0>        -0.1114
      5 C5         -0.8464   -1.2778   -3.4457 C.3       1 <0>        -0.1547
      6 C6         -2.1171   -1.9745   -0.8546 C.2       1 <0>         0.5233
      7 O1         -1.0544   -2.4518   -0.5175 O.2       1 <0>        -0.5347
      8 N1         -3.2527   -2.6847   -0.7048 N.am      1 <0>        -0.6162
      9 C7         -4.5579   -2.0828   -1.0098 C.3       1 <0>         0.1085
     10 C8         -5.4727   -2.2458    0.2081 C.3       1 <0>        -0.1426
     11 C9         -5.5381   -3.7243    0.5978 C.3       1 <0>         0.1650
     12 C10        -4.1390   -4.2164    0.9754 C.3       1 <0>        -0.1432
     13 C11        -3.2086   -4.0776   -0.2392 C.3       1 <0>         0.1130
     14 N2         -6.4383   -3.8881    1.7420 N.am      1 <0>        -0.7419
     15 C12        -7.0504   -5.0700    1.9540 C.2       1 <0>         0.7076
     16 O2         -6.8555   -6.0002    1.1957 O.2       1 <0>        -0.5819
     17 N3         -7.8786   -5.2207    3.0065 N.am      1 <0>        -0.7426
     18 C13        -8.5440   -6.5053    3.2370 C.3       1 <0>         0.1973
     19 H1         -8.7116   -7.0041    2.2824 H         1 <0>         0.1123
     20 C14        -7.6609   -7.3852    4.1240 C.3       1 <0>        -0.1591
     21 C15        -9.8666   -6.2706    3.9201 C.ar      1 <0>        -0.0786
     22 C16       -10.0469   -5.1512    4.7110 C.ar      1 <0>        -0.0921
     23 C17       -11.2595   -4.9352    5.3377 C.ar      1 <0>        -0.0986
     24 C18       -12.2942   -5.8393    5.1735 C.ar      1 <0>        -0.0252
     25 C19       -12.1146   -6.9592    4.3820 C.ar      1 <0>        -0.0959
     26 C20       -10.9020   -7.1723    3.7509 C.ar      1 <0>        -0.0173
     27 Cl1       -10.6776   -8.5745    2.7523 Cl        1 <0>        -0.0437
     28 Cl2       -13.8172   -5.5682    5.9614 Cl        1 <0>        -0.0517
     29 H2         -2.5282    2.5693   -0.1051 H         1 <0>         0.0589
     30 H3         -1.5932    2.0757   -1.5370 H         1 <0>         0.0612
     31 H4         -3.3603    1.8631   -1.5112 H         1 <0>         0.0561
     32 H5         -1.3666    0.4144    0.2898 H         1 <0>         0.0714
     33 H6         -3.1337    0.2018    0.3156 H         1 <0>         0.0641
     34 H7         -3.0358   -0.5005   -2.0946 H         1 <0>         0.0918
     35 H8         -0.8918    0.7035   -2.6013 H         1 <0>         0.0743
     36 H9         -0.0226   -0.4964   -1.6150 H         1 <0>         0.0755
     37 H10        -0.9337   -2.3068   -3.0969 H         1 <0>         0.0539
     38 H11        -1.6712   -1.0520   -4.1216 H         1 <0>         0.0522
     39 H12         0.0997   -1.1517   -3.9722 H         1 <0>         0.0584
     40 H13        -4.4289   -1.0233   -1.2308 H         1 <0>         0.0947
     41 H14        -5.0005   -2.5863   -1.8693 H         1 <0>         0.0752
     42 H15        -5.0751   -1.6670    1.0418 H         1 <0>         0.0744
     43 H16        -6.4731   -1.8899   -0.0381 H         1 <0>         0.0851
     44 H17        -5.9124   -4.3057   -0.2447 H         1 <0>         0.0927
     45 H18        -3.7539   -3.6191    1.8018 H         1 <0>         0.0681
     46 H19        -4.1901   -5.2631    1.2752 H         1 <0>         0.0821
     47 H20        -3.5435   -4.7404   -1.0371 H         1 <0>         0.0717
     48 H21        -2.1891   -4.3346    0.0484 H         1 <0>         0.0964
     49 H22        -6.5938   -3.1460    2.3469 H         1 <0>         0.3955
     50 H23        -8.0341   -4.4785    3.6115 H         1 <0>         0.3941
     51 H24        -8.1560   -8.3410    4.2955 H         1 <0>         0.0712
     52 H25        -6.7043   -7.5550    3.6300 H         1 <0>         0.0708
     53 H26        -7.4934   -6.8864    5.0786 H         1 <0>         0.0603
     54 H27        -9.2396   -4.4454    4.8394 H         1 <0>         0.1383
     55 H28       -11.3995   -4.0609    5.9561 H         1 <0>         0.1435
     56 H29       -12.9219   -7.6650    4.2535 H         1 <0>         0.1484
@<TRIPOS>BOND
     1    1    2 1
     2    1   29 1
     3    1   30 1
     4    1   31 1
     5    2    3 1
     6    2   32 1
     7    2   33 1
     8    3    4 1
     9    3    6 1
    10    3   34 1
    11    4    5 1
    12    4   35 1
    13    4   36 1
    14    5   37 1
    15    5   38 1
    16    5   39 1
    17    6    7 2
    18    6    8 am
    19    8   13 1
    20    8    9 1
    21    9   10 1
    22    9   40 1
    23    9   41 1
    24   10   11 1
    25   10   42 1
    26   10   43 1
    27   11   12 1
    28   11   14 1
    29   11   44 1
    30   12   13 1
    31   12   45 1
    32   12   46 1
    33   13   47 1
    34   13   48 1
    35   14   15 am
    36   14   49 1
    37   15   16 2
    38   15   17 am
    39   17   18 1
    40   17   50 1
    41   18   19 1
    42   18   20 1
    43   18   21 1
    44   20   51 1
    45   20   52 1
    46   20   53 1
    47   21   26 ar
    48   21   22 ar
    49   22   23 ar
    50   22   54 1
    51   23   24 ar
    52   23   55 1
    53   24   25 ar
    54   24   28 1
    55   25   26 ar
    56   25   56 1
    57   26   27 1
@<TRIPOS>MOLECULE
ZINC09023202
   47    49     0     0     0
SMALL
USER_CHARGES
(4-bromo-2-methyl-phenyl)carbamoylmethyl 2-(2-furylmethylamino)benzoate
@<TRIPOS>ATOM
      1 C1         -5.1273    7.7134   -1.0910 C.3       1 <0>        -0.1171
      2 C2         -3.9630    8.3068   -0.3406 C.ar      1 <0>        -0.1027
      3 C3         -3.7843    9.6763   -0.3125 C.ar      1 <0>        -0.0735
      4 C4         -2.7122   10.2213    0.3712 C.ar      1 <0>        -0.0990
      5 C5         -1.8195    9.3971    1.0337 C.ar      1 <0>        -0.0765
      6 C6         -1.9966    8.0278    1.0136 C.ar      1 <0>        -0.1106
      7 C7         -3.0718    7.4779    0.3277 C.ar      1 <0>         0.1578
      8 N1         -3.2535    6.0903    0.3053 N.am      1 <0>        -0.6680
      9 C8         -2.1836    5.2709    0.2846 C.2       1 <0>         0.5166
     10 O1         -1.0648    5.7321    0.3656 O.2       1 <0>        -0.4892
     11 C9         -2.3775    3.7816    0.1608 C.3       1 <0>         0.0513
     12 O2         -1.0833    3.1233    0.1617 O.3       1 <0>        -0.3244
     13 C10        -1.0802    1.7796    0.0572 C.2       1 <0>         0.5273
     14 O3         -2.1304    1.1747   -0.0322 O.2       1 <0>        -0.5223
     15 C11         0.1960    1.0443    0.0514 C.ar      1 <0>        -0.2200
     16 C12         1.4086    1.7399    0.0343 C.ar      1 <0>        -0.0074
     17 C13         2.5983    1.0462    0.0223 C.ar      1 <0>        -0.1948
     18 C14         2.6012   -0.3401    0.0284 C.ar      1 <0>        -0.0251
     19 C15         1.4134   -1.0413    0.0456 C.ar      1 <0>        -0.2172
     20 C16         0.2025   -0.3597    0.0570 C.ar      1 <0>         0.2858
     21 N2         -0.9943   -1.0631    0.0735 N.pl3     1 <0>        -0.7251
     22 C17        -0.9842   -2.5229    0.1960 C.3       1 <0>         0.1992
     23 C18        -2.4007   -3.0374    0.1888 C.2       1 <0>        -0.0401
     24 C19        -3.1016   -3.3968   -0.9016 C.2       1 <0>        -0.1797
     25 C20        -4.3747   -3.8150   -0.4507 C.2       1 <0>        -0.2178
     26 C21        -4.3756   -3.6861    0.8882 C.2       1 <0>        -0.0262
     27 O4         -3.1754   -3.2202    1.2706 O.3       1 <0>        -0.1711
     28 Br1        -2.4664   12.0960    0.4008 Br        1 <0>        -0.0474
     29 H1         -5.9859    7.6324   -0.4244 H         1 <0>         0.0766
     30 H2         -5.3814    8.3556   -1.9343 H         1 <0>         0.0766
     31 H3         -4.8568    6.7230   -1.4571 H         1 <0>         0.0668
     32 H4         -4.4796   10.3218   -0.8284 H         1 <0>         0.1381
     33 H5         -0.9834    9.8253    1.5666 H         1 <0>         0.1379
     34 H6         -1.2995    7.3851    1.5306 H         1 <0>         0.1495
     35 H7         -4.1493    5.7184    0.3048 H         1 <0>         0.4154
     36 H8         -2.8977    3.5591   -0.7708 H         1 <0>         0.1084
     37 H9         -2.9691    3.4210    1.0023 H         1 <0>         0.1080
     38 H10         1.4124    2.8199    0.0295 H         1 <0>         0.1394
     39 H11         3.5341    1.5852    0.0084 H         1 <0>         0.1297
     40 H12         3.5396   -0.8746    0.0192 H         1 <0>         0.1304
     41 H13         1.4246   -2.1213    0.0499 H         1 <0>         0.1322
     42 H14        -1.8371   -0.5880    0.0038 H         1 <0>         0.4209
     43 H15        -0.4369   -2.9541   -0.6422 H         1 <0>         0.0960
     44 H16        -0.4997   -2.8058    1.1305 H         1 <0>         0.0825
     45 H17        -2.7580   -3.3704   -1.9251 H         1 <0>         0.1508
     46 H18        -5.1901   -4.1696   -1.0637 H         1 <0>         0.1519
     47 H19        -5.1999   -3.9223    1.5449 H         1 <0>         0.2061
@<TRIPOS>BOND
     1    1    2 1
     2    1   29 1
     3    1   30 1
     4    1   31 1
     5    2    7 ar
     6    2    3 ar
     7    3    4 ar
     8    3   32 1
     9    4    5 ar
    10    4   28 1
    11    5    6 ar
    12    5   33 1
    13    6    7 ar
    14    6   34 1
    15    7    8 1
    16    8    9 am
    17    8   35 1
    18    9   10 2
    19    9   11 1
    20   11   12 1
    21   11   36 1
    22   11   37 1
    23   12   13 1
    24   13   14 2
    25   13   15 1
    26   15   20 ar
    27   15   16 ar
    28   16   17 ar
    29   16   38 1
    30   17   18 ar
    31   17   39 1
    32   18   19 ar
    33   18   40 1
    34   19   20 ar
    35   19   41 1
    36   20   21 1
    37   21   22 1
    38   21   42 1
    39   22   23 1
    40   22   43 1
    41   22   44 1
    42   23   27 1
    43   23   24 2
    44   24   25 1
    45   24   45 1
    46   25   26 2
    47   25   46 1
    48   26   27 1
    49   26   47 1
@<TRIPOS>MOLECULE
ZINC13059177
   56    59     0     0     0
SMALL
USER_CHARGES
[2-[[2-(cyclopropylcarbamoyl)phenyl]amino]-2-oxo-ethyl] 1-(4-chlorophenyl)cyclopentane-1-carboxylate
@<TRIPOS>ATOM
      1 C1         -1.4565    7.4367   -8.6199 C.ar      1 <0>        -0.1406
      2 C2         -2.1481    7.1155   -7.4630 C.ar      1 <0>        -0.0662
      3 C3         -1.5039    6.4895   -6.4151 C.ar      1 <0>        -0.1312
      4 C4         -0.1524    6.1859   -6.5110 C.ar      1 <0>         0.2149
      5 C5          0.5506    6.5093   -7.6809 C.ar      1 <0>        -0.1725
      6 C6         -0.1161    7.1383   -8.7349 C.ar      1 <0>        -0.0655
      7 C7          1.9853    6.1865   -7.7976 C.2       1 <0>         0.5735
      8 O1          2.5832    5.7215   -6.8465 O.2       1 <0>        -0.5439
      9 N1          2.6334    6.4071   -8.9586 N.am      1 <0>        -0.6947
     10 C8          4.0582    6.0867   -9.0745 C.3       1 <0>         0.0758
     11 C9          4.9568    7.1065   -9.7769 C.3       1 <0>        -0.1905
     12 C10         4.6041    5.7903  -10.4727 C.3       1 <0>        -0.1874
     13 N2          0.5007    5.5582   -5.4529 N.am      1 <0>        -0.6585
     14 C11        -0.1527    4.6504   -4.7010 C.2       1 <0>         0.5163
     15 O2         -1.2745    4.3049   -5.0061 O.2       1 <0>        -0.4936
     16 C12         0.5105    4.0646   -3.4811 C.3       1 <0>         0.0452
     17 O3         -0.3908    3.1190   -2.8473 O.3       1 <0>        -0.3259
     18 C13         0.0517    2.5045   -1.7390 C.2       1 <0>         0.4782
     19 O4          1.1556    2.7486   -1.3126 O.2       1 <0>        -0.4917
     20 C14        -0.8283    1.5100   -1.0265 C.3       1 <0>        -0.0077
     21 C15        -0.0984    0.9487    0.2064 C.3       1 <0>        -0.1186
     22 C16        -0.9518    1.3261    1.4348 C.3       1 <0>        -0.1228
     23 C17        -1.7662    2.5585    0.9664 C.3       1 <0>        -0.1288
     24 C18        -2.1008    2.2089   -0.5049 C.3       1 <0>        -0.1108
     25 C19        -1.2016    0.3879   -1.9606 C.ar      1 <0>        -0.0708
     26 C20        -1.9574   -0.6733   -1.4984 C.ar      1 <0>        -0.0931
     27 C21        -2.3049   -1.6999   -2.3561 C.ar      1 <0>        -0.1068
     28 C22        -1.8866   -1.6709   -3.6746 C.ar      1 <0>        -0.0323
     29 C23        -1.1254   -0.6114   -4.1351 C.ar      1 <0>        -0.1025
     30 C24        -0.7833    0.4175   -3.2779 C.ar      1 <0>        -0.0987
     31 Cl1        -2.3171   -2.9632   -4.7508 Cl        1 <0>        -0.0673
     32 H1         -1.9706    7.9230   -9.4358 H         1 <0>         0.1335
     33 H2         -3.1985    7.3530   -7.3823 H         1 <0>         0.1347
     34 H3         -2.0507    6.2390   -5.5181 H         1 <0>         0.1423
     35 H4          0.4182    7.3901   -9.6391 H         1 <0>         0.1295
     36 H5          2.1564    6.7781   -9.7174 H         1 <0>         0.4031
     37 H6          4.4844    5.5306   -8.2395 H         1 <0>         0.1407
     38 H7          4.4879    8.0159  -10.1527 H         1 <0>         0.0982
     39 H8          5.9745    7.2216   -9.4039 H         1 <0>         0.1050
     40 H9          5.3898    5.0396  -10.5576 H         1 <0>         0.1062
     41 H10         3.9031    5.8334  -11.3063 H         1 <0>         0.0986
     42 H11         1.4259    5.7744   -5.2572 H         1 <0>         0.4272
     43 H12         0.7511    4.8634   -2.7796 H         1 <0>         0.1095
     44 H13         1.4261    3.5521   -3.7762 H         1 <0>         0.1090
     45 H14        -0.0142   -0.1353    0.1291 H         1 <0>         0.0812
     46 H15         0.8927    1.3950    0.2889 H         1 <0>         0.0948
     47 H16        -1.6194    0.5069    1.7018 H         1 <0>         0.0714
     48 H17        -0.3122    1.5884    2.2776 H         1 <0>         0.0742
     49 H18        -1.1614    3.4637    1.0205 H         1 <0>         0.0693
     50 H19        -2.6775    2.6658    1.5548 H         1 <0>         0.0777
     51 H20        -2.2997    3.1154   -1.0766 H         1 <0>         0.0809
     52 H21        -2.9545    1.5330   -0.5539 H         1 <0>         0.0893
     53 H22        -2.2802   -0.6980   -0.4681 H         1 <0>         0.1369
     54 H23        -2.8991   -2.5268   -1.9961 H         1 <0>         0.1374
     55 H24        -0.7989   -0.5880   -5.1643 H         1 <0>         0.1348
     56 H25        -0.1895    1.2448   -3.6374 H         1 <0>         0.1331
@<TRIPOS>BOND
     1    1    6 ar
     2    1    2 ar
     3    1   32 1
     4    2    3 ar
     5    2   33 1
     6    3    4 ar
     7    3   34 1
     8    4    5 ar
     9    4   13 1
    10    5    6 ar
    11    5    7 1
    12    6   35 1
    13    7    8 2
    14    7    9 am
    15    9   10 1
    16    9   36 1
    17   10   12 1
    18   10   11 1
    19   10   37 1
    20   11   12 1
    21   11   38 1
    22   11   39 1
    23   12   40 1
    24   12   41 1
    25   13   14 am
    26   13   42 1
    27   14   15 2
    28   14   16 1
    29   16   17 1
    30   16   43 1
    31   16   44 1
    32   17   18 1
    33   18   19 2
    34   18   20 1
    35   20   24 1
    36   20   21 1
    37   20   25 1
    38   21   22 1
    39   21   45 1
    40   21   46 1
    41   22   23 1
    42   22   47 1
    43   22   48 1
    44   23   24 1
    45   23   49 1
    46   23   50 1
    47   24   51 1
    48   24   52 1
    49   25   30 ar
    50   25   26 ar
    51   26   27 ar
    52   26   53 1
    53   27   28 ar
    54   27   54 1
    55   28   29 ar
    56   28   31 1
    57   29   30 ar
    58   29   55 1
    59   30   56 1
@<TRIPOS>MOLECULE
ZINC35957105
   65    68     0     0     0
SMALL
USER_CHARGES

@<TRIPOS>ATOM
      1 C1         -0.0187    1.5258    0.0104 C.3       1 <0>        -0.1460
      2 C2          0.0021   -0.0041    0.0020 C.3       1 <0>        -0.0542
      3 C3          0.7421   -0.5109    1.2415 C.3       1 <0>        -0.1457
      4 C4         -1.4117   -0.5257    0.0127 C.ar      1 <0>        -0.1095
      5 C5         -2.2583   -0.2035    1.0573 C.ar      1 <0>        -0.0739
      6 C6         -3.5547   -0.6808    1.0697 C.ar      1 <0>        -0.1440
      7 C7         -4.0069   -1.4836    0.0326 C.ar      1 <0>         0.1243
      8 C8         -3.1556   -1.8051   -1.0146 C.ar      1 <0>        -0.2052
      9 C9         -1.8618   -1.3210   -1.0249 C.ar      1 <0>        -0.0768
     10 O1         -5.2816   -1.9547    0.0427 O.3       1 <0>        -0.3090
     11 C10        -5.6786   -2.7755   -1.0576 C.3       1 <0>         0.1566
     12 C11        -7.1128   -3.2010   -0.8752 C.2       1 <0>        -0.0170
     13 N1         -8.1914   -2.5960   -1.2923 N.2       1 <0>        -0.4512
     14 C12        -9.3764   -3.1513   -1.0200 C.2       1 <0>        -0.0128
     15 C13        -9.3435   -4.3248   -0.3154 C.2       1 <0>        -0.2248
     16 S1         -7.6960   -4.5678   -0.0942 S.3       1 <0>         0.3095
     17 C14       -10.6431   -2.5366   -1.4520 C.2       1 <0>         0.5957
     18 O2        -11.7016   -3.0726   -1.1842 O.2       1 <0>        -0.5328
     19 N2        -10.6294   -1.3801   -2.1439 N.am      1 <0>        -0.7054
     20 C15       -11.8894   -0.7687   -2.5737 C.3       1 <0>         0.1427
     21 C16       -12.3299   -1.3878   -3.9016 C.3       1 <0>        -0.1265
     22 C17       -11.2549   -1.1394   -4.9616 C.3       1 <0>        -0.1247
     23 C18       -11.0553    0.3667   -5.1424 C.3       1 <0>         0.1443
     24 C19       -10.6148    0.9858   -3.8144 C.3       1 <0>        -0.1302
     25 C20       -11.6898    0.7374   -2.7544 C.3       1 <0>        -0.1247
     26 N3        -10.0260    0.6046   -6.1574 N.am      1 <0>        -0.7272
     27 C21       -10.0157    1.7616   -6.8485 C.2       1 <0>         0.5233
     28 O3        -10.8586    2.6059   -6.6302 O.2       1 <0>        -0.5367
     29 C22        -8.9569    2.0063   -7.8926 C.3       1 <0>        -0.1410
     30 C23        -7.6260    2.5139   -7.3130 C.3       1 <0>        -0.1228
     31 C24        -7.5493    3.4584   -8.5242 C.3       1 <0>        -0.1428
     32 C25        -9.0832    3.3710   -8.5900 C.3       1 <0>        -0.1182
     33 H1          1.0039    1.9031    0.0027 H         1 <0>         0.0586
     34 H2         -0.5459    1.8868   -0.8726 H         1 <0>         0.0558
     35 H3         -0.5289    1.8773    0.9072 H         1 <0>         0.0567
     36 H4          0.5123   -0.3556   -0.8948 H         1 <0>         0.0769
     37 H5          0.7568   -1.6008    1.2356 H         1 <0>         0.0559
     38 H6          1.7647   -0.1336    1.2338 H         1 <0>         0.0585
     39 H7          0.2319   -0.1594    2.1383 H         1 <0>         0.0567
     40 H8         -1.9058    0.4215    1.8644 H         1 <0>         0.1294
     41 H9         -4.2154   -0.4294    1.8862 H         1 <0>         0.1309
     42 H10        -3.5054   -2.4299   -1.8231 H         1 <0>         0.1280
     43 H11        -1.2000   -1.5674   -1.8421 H         1 <0>         0.1254
     44 H12        -5.5823   -2.2112   -1.9852 H         1 <0>         0.0963
     45 H13        -5.0405   -3.6581   -1.1014 H         1 <0>         0.0924
     46 H14       -10.1681   -4.9406    0.0120 H         1 <0>         0.2110
     47 H15        -9.7852   -0.9527   -2.3575 H         1 <0>         0.4084
     48 H16       -12.6552   -0.9456   -1.8185 H         1 <0>         0.0942
     49 H17       -12.4721   -2.4608   -3.7729 H         1 <0>         0.0750
     50 H18       -13.2674   -0.9328   -4.2214 H         1 <0>         0.0787
     51 H19       -10.3174   -1.5943   -4.6419 H         1 <0>         0.0674
     52 H20       -11.5687   -1.5805   -5.9077 H         1 <0>         0.0705
     53 H21       -11.9928    0.8217   -5.4621 H         1 <0>         0.0902
     54 H22        -9.6773    0.5309   -3.4947 H         1 <0>         0.0626
     55 H23       -10.4726    2.0588   -3.9432 H         1 <0>         0.0733
     56 H24       -12.6273    1.1924   -3.0742 H         1 <0>         0.0848
     57 H25       -11.3760    1.1785   -1.8084 H         1 <0>         0.0747
     58 H26        -9.3519   -0.0707   -6.3320 H         1 <0>         0.3994
     59 H27        -8.8434    1.1713   -8.5840 H         1 <0>         0.1120
     60 H28        -7.7342    3.0330   -6.3607 H         1 <0>         0.0844
     61 H29        -6.8401    1.7588   -7.2977 H         1 <0>         0.0746
     62 H30        -7.1788    4.4537   -8.2790 H         1 <0>         0.0732
     63 H31        -7.0495    3.0206   -9.3883 H         1 <0>         0.0838
     64 H32        -9.4738    3.3077   -9.6057 H         1 <0>         0.0720
     65 H33        -9.5898    4.1244   -7.9869 H         1 <0>         0.0949
@<TRIPOS>BOND
     1    1    2 1
     2    1   33 1
     3    1   34 1
     4    1   35 1
     5    2    3 1
     6    2    4 1
     7    2   36 1
     8    3   37 1
     9    3   38 1
    10    3   39 1
    11    4    9 ar
    12    4    5 ar
    13    5    6 ar
    14    5   40 1
    15    6    7 ar
    16    6   41 1
    17    7    8 ar
    18    7   10 1
    19    8    9 ar
    20    8   42 1
    21    9   43 1
    22   10   11 1
    23   11   12 1
    24   11   44 1
    25   11   45 1
    26   12   16 1
    27   12   13 2
    28   13   14 1
    29   14   15 2
    30   14   17 1
    31   15   16 1
    32   15   46 1
    33   17   18 2
    34   17   19 am
    35   19   20 1
    36   19   47 1
    37   20   25 1
    38   20   21 1
    39   20   48 1
    40   21   22 1
    41   21   49 1
    42   21   50 1
    43   22   23 1
    44   22   51 1
    45   22   52 1
    46   23   24 1
    47   23   26 1
    48   23   53 1
    49   24   25 1
    50   24   54 1
    51   24   55 1
    52   25   56 1
    53   25   57 1
    54   26   27 am
    55   26   58 1
    56   27   28 2
    57   27   29 1
    58   29   32 1
    59   29   30 1
    60   29   59 1
    61   30   31 1
    62   30   60 1
    63   30   61 1
    64   31   32 1
    65   31   62 1
    66   31   63 1
    67   32   64 1
    68   32   65 1
@<TRIPOS>MOLECULE
ZINC39653657
   54    55     0     0     0
SMALL
USER_CHARGES

@<TRIPOS>ATOM
      1 C1         -0.0157    1.5028    0.0138 C.3       1 <0>        -0.1182
      2 C2          0.0041   -0.0041    0.0035 C.ar      1 <0>        -0.0584
      3 C3         -1.1355   -0.7114    0.3404 C.ar      1 <0>        -0.1127
      4 C4         -1.1210   -2.0924    0.3325 C.ar      1 <0>        -0.0557
      5 C5          0.0393   -2.7714   -0.0147 C.ar      1 <0>         0.1317
      6 C6          1.1829   -2.0583   -0.3533 C.ar      1 <0>        -0.0172
      7 C7          1.1600   -0.6762   -0.3484 C.ar      1 <0>        -0.1141
      8 Cl1         2.6363   -2.9020   -0.7884 Cl        1 <0>        -0.0580
      9 N1          0.0572   -4.1710   -0.0232 N.am      1 <0>        -0.6789
     10 C8          0.4707   -4.8463    1.0674 C.2       1 <0>         0.5210
     11 O1          0.7407   -4.2460    2.0861 O.2       1 <0>        -0.4905
     12 C9          0.5976   -6.3472    1.0211 C.3       1 <0>         0.0436
     13 O2          1.0496   -6.8264    2.2893 O.3       1 <0>        -0.3116
     14 C10         1.2154   -8.1524    2.4158 C.2       1 <0>         0.4668
     15 O3          0.9845   -8.8821    1.4809 O.2       1 <0>        -0.4988
     16 C11         1.6896   -8.7310    3.7240 C.3       1 <0>         0.1628
     17 H1          2.6680   -8.3185    3.9703 H         1 <0>         0.1330
     18 C12         0.6934   -8.3759    4.8297 C.3       1 <0>        -0.0990
     19 C13         1.1749   -8.9633    6.1579 C.3       1 <0>        -0.1386
     20 C14         0.5892   -6.8544    4.9529 C.3       1 <0>        -0.1571
     21 N2          1.7894  -10.1878    3.6061 N.am      1 <0>        -0.7145
     22 C15         2.6307  -10.8726    4.4059 C.2       1 <0>         0.5663
     23 O4          3.3068  -10.2814    5.2253 O.2       1 <0>        -0.5092
     24 C16         2.7313  -12.3413    4.2870 C.ar      1 <0>        -0.1772
     25 C17         1.9605  -13.0234    3.3430 C.ar      1 <0>        -0.0565
     26 C18         2.0594  -14.3943    3.2368 C.ar      1 <0>        -0.1384
     27 C19         2.9200  -15.0970    4.0631 C.ar      1 <0>        -0.0595
     28 C20         3.6865  -14.4312    5.0007 C.ar      1 <0>        -0.1647
     29 C21         3.6029  -13.0552    5.1150 C.ar      1 <0>         0.1632
     30 F1          4.3565  -12.4039    6.0278 F         1 <0>        -0.1127
     31 C22        -2.3634   -2.8617    0.7010 C.3       1 <0>        -0.1133
     32 H2         -0.3183    1.8689   -0.9673 H         1 <0>         0.0774
     33 H3         -0.7234    1.8517    0.7659 H         1 <0>         0.0728
     34 H4          0.9801    1.8777    0.2503 H         1 <0>         0.0719
     35 H5         -2.0379   -0.1831    0.6105 H         1 <0>         0.1349
     36 H6          2.0469   -0.1209   -0.6157 H         1 <0>         0.1385
     37 H7         -0.2280   -4.6549   -0.8140 H         1 <0>         0.4125
     38 H8         -0.3729   -6.7870    0.7914 H         1 <0>         0.1047
     39 H9          1.3152   -6.6276    0.2500 H         1 <0>         0.1054
     40 H10        -0.2850   -8.7883    4.5834 H         1 <0>         0.0765
     41 H11         2.1533   -8.5508    6.4042 H         1 <0>         0.0697
     42 H12         0.4652   -8.7103    6.9455 H         1 <0>         0.0571
     43 H13         1.2491  -10.0472    6.0701 H         1 <0>         0.0532
     44 H14         0.2463   -6.4359    4.0066 H         1 <0>         0.0791
     45 H15        -0.1204   -6.6014    5.7405 H         1 <0>         0.0625
     46 H16         1.5677   -6.4420    5.1992 H         1 <0>         0.0631
     47 H17         1.2500  -10.6595    2.9523 H         1 <0>         0.4090
     48 H18         1.2879  -12.4779    2.6977 H         1 <0>         0.1363
     49 H19         1.4635  -14.9220    2.5069 H         1 <0>         0.1384
     50 H20         2.9922  -16.1709    3.9748 H         1 <0>         0.1403
     51 H21         4.3551  -14.9857    5.6425 H         1 <0>         0.1450
     52 H22        -2.9566   -3.0447   -0.1950 H         1 <0>         0.0769
     53 H23        -2.0813   -3.8138    1.1506 H         1 <0>         0.0667
     54 H24        -2.9510   -2.2832    1.4139 H         1 <0>         0.0742
@<TRIPOS>BOND
     1    1    2 1
     2    1   32 1
     3    1   33 1
     4    1   34 1
     5    2    7 ar
     6    2    3 ar
     7    3    4 ar
     8    3   35 1
     9    4    5 ar
    10    4   31 1
    11    5    6 ar
    12    5    9 1
    13    6    7 ar
    14    6    8 1
    15    7   36 1
    16    9   10 am
    17    9   37 1
    18   10   11 2
    19   10   12 1
    20   12   13 1
    21   12   38 1
    22   12   39 1
    23   13   14 1
    24   14   15 2
    25   14   16 1
    26   16   17 1
    27   16   18 1
    28   16   21 1
    29   18   19 1
    30   18   20 1
    31   18   40 1
    32   19   41 1
    33   19   42 1
    34   19   43 1
    35   20   44 1
    36   20   45 1
    37   20   46 1
    38   21   22 am
    39   21   47 1
    40   22   23 2
    41   22   24 1
    42   24   29 ar
    43   24   25 ar
    44   25   26 ar
    45   25   48 1
    46   26   27 ar
    47   26   49 1
    48   27   28 ar
    49   27   50 1
    50   28   29 ar
    51   28   51 1
    52   29   30 1
    53   31   52 1
    54   31   53 1
    55   31   54 1
@<TRIPOS>MOLECULE
ZINC59581760
   51    53     0     0     0
SMALL
USER_CHARGES

@<TRIPOS>ATOM
      1 C1         -0.0133    1.3921    0.0045 C.ar      1 <0>        -0.0837
      2 C2          1.1715    2.0983   -0.0086 C.ar      1 <0>        -0.1036
      3 C3          2.3815    1.4255   -0.0334 C.ar      1 <0>        -0.0277
      4 C4          2.4102    0.0412   -0.0456 C.ar      1 <0>        -0.1052
      5 C5          1.2319   -0.6760   -0.0333 C.ar      1 <0>        -0.0880
      6 C6          0.0092   -0.0034   -0.0074 C.ar      1 <0>        -0.0097
      7 C7         -1.2571   -0.7662    0.0070 C.2       1 <0>        -0.0097
      8 C8         -2.5126   -0.2497    0.0257 C.2       1 <0>        -0.0122
      9 N1         -3.3726   -1.2793    0.0328 N.2       1 <0>        -0.4740
     10 C9         -2.6969   -2.3940    0.0193 C.2       1 <0>         0.2004
     11 O1         -1.3872   -2.1110   -0.0019 O.3       1 <0>        -0.1928
     12 C10        -3.2929   -3.7781    0.0215 C.3       1 <0>        -0.0081
     13 C11        -3.5130   -4.2408   -1.4202 C.3       1 <0>        -0.1397
     14 C12        -4.1090   -5.6250   -1.4180 C.2       1 <0>         0.5185
     15 O2         -4.3353   -6.1861   -0.3669 O.2       1 <0>        -0.5360
     16 N2         -4.3904   -6.2393   -2.5842 N.am      1 <0>        -0.7307
     17 C13        -4.9697   -7.5849   -2.5821 C.3       1 <0>         0.1178
     18 C14        -5.1899   -8.0476   -4.0237 C.3       1 <0>        -0.1187
     19 C15        -5.7949   -9.4529   -4.0216 C.3       1 <0>        -0.1363
     20 C16        -6.0117   -9.9087   -5.4415 C.2       1 <0>         0.5147
     21 O3         -5.7119   -9.1811   -6.3645 O.2       1 <0>        -0.5163
     22 N3         -6.5389  -11.1248   -5.6859 N.am      1 <0>        -0.6752
     23 C17        -6.8303  -11.5101   -6.9996 C.ar      1 <0>         0.1463
     24 C18        -7.9400  -12.3025   -7.2621 C.ar      1 <0>        -0.1323
     25 C19        -8.2253  -12.6814   -8.5592 C.ar      1 <0>        -0.0911
     26 C20        -7.4063  -12.2720   -9.5969 C.ar      1 <0>        -0.0490
     27 C21        -6.2998  -11.4823   -9.3380 C.ar      1 <0>        -0.0915
     28 C22        -6.0133  -11.0959   -8.0433 C.ar      1 <0>        -0.1089
     29 Cl1        -7.7673  -12.7505  -11.2261 Cl        1 <0>        -0.0679
     30 Cl2         3.8685    2.3212   -0.0496 Cl        1 <0>        -0.0605
     31 H1         -0.9564    1.9179    0.0283 H         1 <0>         0.1407
     32 H2          1.1553    3.1782    0.0002 H         1 <0>         0.1434
     33 H3          3.3570   -0.4781   -0.0653 H         1 <0>         0.1409
     34 H4          1.2555   -1.7557   -0.0436 H         1 <0>         0.1383
     35 H5         -2.7717    0.7987    0.0335 H         1 <0>         0.1890
     36 H6         -2.6126   -4.4658    0.5239 H         1 <0>         0.1040
     37 H7         -4.2473   -3.7620    0.5476 H         1 <0>         0.1181
     38 H8         -4.1933   -3.5532   -1.9226 H         1 <0>         0.1057
     39 H9         -2.5586   -4.2570   -1.9463 H         1 <0>         0.1011
     40 H10        -4.2094   -5.7905   -3.4248 H         1 <0>         0.4043
     41 H11        -4.2895   -8.2726   -2.0796 H         1 <0>         0.0712
     42 H12        -5.9242   -7.5687   -2.0559 H         1 <0>         0.0714
     43 H13        -5.8701   -7.3599   -4.5262 H         1 <0>         0.0804
     44 H14        -4.2354   -8.0638   -4.5499 H         1 <0>         0.0802
     45 H15        -5.1146  -10.1406   -3.5191 H         1 <0>         0.1036
     46 H16        -6.7494   -9.4367   -3.4954 H         1 <0>         0.1039
     47 H17        -6.7164  -11.7329   -4.9514 H         1 <0>         0.4146
     48 H18        -8.5793  -12.6225   -6.4526 H         1 <0>         0.1361
     49 H19        -9.0880  -13.2980   -8.7638 H         1 <0>         0.1386
     50 H20        -5.6620  -11.1645  -10.1495 H         1 <0>         0.1376
     51 H21        -5.1522  -10.4759   -7.8424 H         1 <0>         0.1480
@<TRIPOS>BOND
     1    1    6 ar
     2    1    2 ar
     3    1   31 1
     4    2    3 ar
     5    2   32 1
     6    3    4 ar
     7    3   30 1
     8    4    5 ar
     9    4   33 1
    10    5    6 ar
    11    5   34 1
    12    6    7 1
    13    7   11 1
    14    7    8 2
    15    8    9 1
    16    8   35 1
    17    9   10 2
    18   10   11 1
    19   10   12 1
    20   12   13 1
    21   12   36 1
    22   12   37 1
    23   13   14 1
    24   13   38 1
    25   13   39 1
    26   14   15 2
    27   14   16 am
    28   16   17 1
    29   16   40 1
    30   17   18 1
    31   17   41 1
    32   17   42 1
    33   18   19 1
    34   18   43 1
    35   18   44 1
    36   19   20 1
    37   19   45 1
    38   19   46 1
    39   20   21 2
    40   20   22 am
    41   22   23 1
    42   22   47 1
    43   23   28 ar
    44   23   24 ar
    45   24   25 ar
    46   24   48 1
    47   25   26 ar
    48   25   49 1
    49   26   27 ar
    50   26   29 1
    51   27   28 ar
    52   27   50 1
    53   28   51 1
@<TRIPOS>MOLECULE
ZINC13239409
   49    51     0     0     0
SMALL
USER_CHARGES
2-[[4-(4-acetamidophenyl)phenyl]sulfonylamino]-4-(trifluoromethyl)benzoic acid
@<TRIPOS>ATOM
      1 C1          1.0326   14.5047   -0.6279 C.3       1 <0>        -0.1692
      2 C2          1.1202   13.0780   -0.1505 C.2       1 <0>         0.5085
      3 O1          0.6377   12.1854   -0.8150 O.2       1 <0>        -0.5231
      4 N1          1.7346   12.7939    1.0149 N.am      1 <0>        -0.6743
      5 C3          1.7318   11.4846    1.5058 C.ar      1 <0>         0.1450
      6 C4          1.8032   10.4129    0.6239 C.ar      1 <0>        -0.1195
      7 C5          1.8001    9.1211    1.1055 C.ar      1 <0>        -0.0828
      8 C6          1.7257    8.8903    2.4783 C.ar      1 <0>        -0.0681
      9 C7          1.6493    9.9668    3.3607 C.ar      1 <0>        -0.0826
     10 C8          1.6571   11.2570    2.8747 C.ar      1 <0>        -0.1430
     11 C9          1.7217    7.5013    2.9989 C.ar      1 <0>         0.0136
     12 C10         1.6474    7.2689    4.3710 C.ar      1 <0>        -0.1349
     13 C11         1.6445    5.9745    4.8499 C.ar      1 <0>        -0.0041
     14 C12         1.7152    4.9089    3.9707 C.ar      1 <0>        -0.6735
     15 C13         1.7948    5.1338    2.6082 C.ar      1 <0>        -0.0115
     16 C14         1.7927    6.4239    2.1178 C.ar      1 <0>        -0.1345
     17 S1          1.7110    3.2590    4.5892 S.o2      1 <0>         2.6866
     18 O2          2.1848    3.3257    5.9272 O.2       1 <0>        -0.9515
     19 O3          2.3350    2.4527    3.5994 O.2       1 <0>        -0.9569
     20 N2          0.1308    2.7706    4.6704 N.pl3     1 <0>        -1.0256
     21 C15        -0.6422    2.7262    3.5181 C.ar      1 <0>         0.1865
     22 C16        -0.0707    2.3536    2.3075 C.ar      1 <0>        -0.1516
     23 C17        -0.8411    2.3094    1.1640 C.ar      1 <0>        -0.1605
     24 C18        -2.1864    2.6410    1.2103 C.ar      1 <0>        -0.1045
     25 C19        -2.7723    3.0076    2.4016 C.ar      1 <0>        -0.0555
     26 C20        -2.0057    3.0571    3.5696 C.ar      1 <0>        -0.1018
     27 C21        -2.6246    3.4532    4.8461 C.2       1 <0>         0.4932
     28 O4         -1.9547    3.4945    5.8592 O.co2     1 <0>        -0.6202
     29 C22        -0.2148    1.9040   -0.1454 C.3       1 <0>         0.5108
     30 F1         -0.3175    0.5176   -0.3020 F         1 <0>        -0.1775
     31 F2          1.1340    2.2753   -0.1518 F         1 <0>        -0.1765
     32 F3         -0.8794    2.5427   -1.1978 F         1 <0>        -0.1787
     33 H1          1.5181   15.1602    0.0951 H         1 <0>         0.0781
     34 H2          1.5309   14.5960   -1.5931 H         1 <0>         0.0987
     35 H3         -0.0144   14.7897   -0.7312 H         1 <0>         0.0998
     36 H4          2.1788   13.4977    1.5132 H         1 <0>         0.4116
     37 H5          1.8608   10.5921   -0.4396 H         1 <0>         0.1415
     38 H6          1.8549    8.2885    0.4198 H         1 <0>         0.1326
     39 H7          1.5871    9.7903    4.4243 H         1 <0>         0.1336
     40 H8          1.6010   12.0913    3.5582 H         1 <0>         0.1292
     41 H9          1.5919    8.1001    5.0583 H         1 <0>         0.1352
     42 H10         1.5873    5.7932    5.9130 H         1 <0>         0.1446
     43 H11         1.8542    4.2982    1.9265 H         1 <0>         0.1417
     44 H12         1.8505    6.5982    1.0536 H         1 <0>         0.1350
     45 H13        -0.2548    2.5155    5.5232 H         1 <0>         0.4437
     46 H14         0.9776    2.0980    2.2618 H         1 <0>         0.1689
     47 H15        -2.7792    2.6072    0.3082 H         1 <0>         0.1340
     48 H16        -3.8217    3.2609    2.4325 H         1 <0>         0.1481
     49 O5         -3.9337    3.7699    4.8907 O.co2     1 <0>        -0.7382
@<TRIPOS>BOND
     1    1    2 1
     2    1   33 1
     3    1   34 1
     4    1   35 1
     5    2    3 2
     6    2    4 am
     7    4    5 1
     8    4   36 1
     9    5   10 ar
    10    5    6 ar
    11    6    7 ar
    12    6   37 1
    13    7    8 ar
    14    7   38 1
    15    8    9 ar
    16    8   11 1
    17    9   10 ar
    18    9   39 1
    19   10   40 1
    20   11   16 ar
    21   11   12 ar
    22   12   13 ar
    23   12   41 1
    24   13   14 ar
    25   13   42 1
    26   14   15 ar
    27   14   17 1
    28   15   16 ar
    29   15   43 1
    30   16   44 1
    31   17   18 2
    32   17   19 2
    33   17   20 1
    34   20   21 1
    35   20   45 1
    36   21   26 ar
    37   21   22 ar
    38   22   23 ar
    39   22   46 1
    40   23   24 ar
    41   23   29 1
    42   24   25 ar
    43   24   47 1
    44   25   26 ar
    45   25   48 1
    46   26   27 1
    47   27   28 2
    48   27   49 1
    49   29   30 1
    50   29   31 1
    51   29   32 1
@<TRIPOS>MOLECULE
ZINC21080530
   35    36     0     0     0
SMALL
USER_CHARGES
2,6-dibromo-4-[(E)-[[5-(2-ethenoxyethylsulfanyl)-4H-1,2,4-triazol-3-yl]hydrazono]methyl]phenol
@<TRIPOS>ATOM
      1 C1          7.6258    5.8832   -0.0398 C.2       1 <0>        -0.2659
      2 C2          6.3089    5.8881   -0.0274 C.2       1 <0>         0.0314
      3 O1          5.6261    4.7158   -0.0268 O.3       1 <0>        -0.3248
      4 C3          4.1994    4.7959   -0.0130 C.3       1 <0>         0.0805
      5 C4          3.6093    3.3843   -0.0145 C.3       1 <0>        -0.1270
      6 S1          1.7983    3.4860    0.0031 S.3       1 <0>         0.0436
      7 C5          1.2767    1.8029   -0.0004 C.2       1 <0>         0.2193
      8 N1         -0.0165    1.3631    0.0095 N.2       1 <0>        -0.5662
      9 C6          0.0021   -0.0041    0.0020 C.2       1 <0>         0.5528
     10 N2          1.2543   -0.3922   -0.0120 N.pl3     1 <0>        -0.4779
     11 N3          2.0622    0.7525   -0.0136 N.2       1 <0>        -0.3281
     12 N4         -1.1091   -0.8347    0.0075 N.pl3     1 <0>        -0.5641
     13 N5         -0.9438   -2.2259   -0.0015 N.2       1 <0>        -0.3039
     14 C7         -1.9839   -3.0035    0.0036 C.2       1 <0>         0.1804
     15 C8         -1.8099   -4.4672   -0.0058 C.ar      1 <0>        -0.2124
     16 C9         -0.5268   -5.0203   -0.0261 C.ar      1 <0>         0.0194
     17 C10        -0.3686   -6.3903   -0.0304 C.ar      1 <0>        -0.2235
     18 C11        -1.4827   -7.2202   -0.0245 C.ar      1 <0>         0.3220
     19 C12        -2.7603   -6.6747   -0.0097 C.ar      1 <0>        -0.2199
     20 C13        -2.9277   -5.3058   -0.0003 C.ar      1 <0>         0.0100
     21 Br1        -4.2720   -7.8108   -0.0029 Br        1 <0>        -0.0781
     22 O2         -1.3224   -8.5698   -0.0337 O.3       1 <0>        -0.6433
     23 Br2         1.3672   -7.1403   -0.0506 Br        1 <0>        -0.0796
     24 H1          8.1794    6.8338   -0.0403 H         1 <0>         0.1229
     25 H2          8.1722    4.9285   -0.0497 H         1 <0>         0.1055
     26 H3          5.7625    6.8428   -0.0175 H         1 <0>         0.1206
     27 H4          3.8709    5.3297    0.8910 H         1 <0>         0.0721
     28 H5          3.8540    5.3387   -0.9052 H         1 <0>         0.0721
     29 H6          3.9378    2.8505   -0.9185 H         1 <0>         0.1045
     30 H7          3.9548    2.8415    0.8777 H         1 <0>         0.1045
     31 H8         -2.1199   -0.4010    0.0189 H         1 <0>         0.4254
     32 H9         -2.9948   -2.5699    0.0149 H         1 <0>         0.1154
     33 H10         0.3398   -4.3758   -0.0345 H         1 <0>         0.1178
     34 H11        -3.9213   -4.8826    0.0108 H         1 <0>         0.1162
     35 H12         1.4976   -1.4649   -0.0200 H         1 <0>         0.4784
@<TRIPOS>BOND
     1    1    2 2
     2    1   24 1
     3    1   25 1
     4    2    3 1
     5    2   26 1
     6    3    4 1
     7    4    5 1
     8    4   27 1
     9    4   28 1
    10    5    6 1
    11    5   29 1
    12    5   30 1
    13    6    7 1
    14    7   11 2
    15    7    8 1
    16    8    9 2
    17    9   10 1
    18    9   12 1
    19   10   11 1
    20   10   35 1
    21   12   13 1
    22   12   31 1
    23   13   14 2
    24   14   15 1
    25   14   32 1
    26   15   20 ar
    27   15   16 ar
    28   16   17 ar
    29   16   33 1
    30   17   18 ar
    31   17   23 1
    32   18   19 ar
    33   18   22 1
    34   19   20 ar
    35   19   21 1
    36   20   34 1
@<TRIPOS>MOLECULE
ZINC39971221
   41    43     0     0     0
SMALL
USER_CHARGES

@<TRIPOS>ATOM
      1 C1          0.0107    1.3339   -0.2875 C.ar      1 <0>        -0.1005
      2 C2          1.1996    2.0367   -0.2937 C.ar      1 <0>        -0.0120
      3 C3          2.3900    1.3872   -0.0227 C.ar      1 <0>        -0.6085
      4 C4          2.3942    0.0327    0.2558 C.ar      1 <0>        -0.0154
      5 C5          1.2087   -0.6759    0.2637 C.ar      1 <0>        -0.1466
      6 C6          0.0115   -0.0265   -0.0082 C.ar      1 <0>         0.1584
      7 N1         -1.1909   -0.7412   -0.0006 N.pl3     1 <0>        -0.6273
      8 C7         -2.1231   -0.5017   -0.9441 C.2       1 <0>         0.5109
      9 S1         -1.7784    0.5673   -2.2361 S.2       1 <0>        -0.4625
     10 N2         -3.3266   -1.1039   -0.8705 N.pl3     1 <0>        -0.6143
     11 C8         -4.2504   -0.9435   -1.9017 C.ar      1 <0>         0.3449
     12 C9         -5.4395   -1.6640   -1.8793 C.ar      1 <0>        -0.1853
     13 C10        -6.3482   -1.4953   -2.9087 C.ar      1 <0>        -0.0444
     14 C11        -6.0349   -0.6073   -3.9304 C.ar      1 <0>        -0.1115
     15 C12        -4.8344    0.0755   -3.8881 C.ar      1 <0>         0.1384
     16 N3         -3.9898   -0.1028   -2.8902 N.ar      1 <0>        -0.3976
     17 Cl1        -7.1397   -0.3588   -5.2462 Cl        1 <0>        -0.0612
     18 S2          3.9047    2.2873   -0.0328 S.o2      1 <0>         2.6046
     19 O1          4.9363    1.3434   -0.2854 O.2       1 <0>        -1.0238
     20 O2          3.6951    3.4257   -0.8570 O.2       1 <0>        -1.0207
     21 N4          4.1477    2.8540    1.5042 N.2       1 <0>        -1.0811
     22 C13         5.2838    3.6117    1.7976 C.ar      1 <0>         0.3022
     23 C14         6.2076    3.8955    0.8000 C.ar      1 <0>        -0.2533
     24 C15         7.3307    4.6460    1.0931 C.ar      1 <0>         0.0399
     25 C16         7.5352    5.1145    2.3790 C.ar      1 <0>        -0.2117
     26 C17         6.6167    4.8328    3.3750 C.ar      1 <0>         0.0244
     27 C18         5.4889    4.0876    3.0863 C.ar      1 <0>        -0.1688
     28 Cl2         6.8778    5.4216    4.9871 Cl        1 <0>        -0.0917
     29 Cl3         8.4862    5.0007   -0.1531 Cl        1 <0>        -0.0917
     30 H1         -0.9190    1.8426   -0.4952 H         1 <0>         0.1448
     31 H2          1.1997    3.0947   -0.5108 H         1 <0>         0.1438
     32 H3          3.3255   -0.4717    0.4671 H         1 <0>         0.1432
     33 H4          1.2128   -1.7339    0.4805 H         1 <0>         0.1288
     34 H5         -1.3538   -1.4091    0.6837 H         1 <0>         0.4059
     35 H6         -3.5499   -1.6490   -0.0998 H         1 <0>         0.4105
     36 H7         -5.6507   -2.3464   -1.0693 H         1 <0>         0.1415
     37 H8         -7.2798   -2.0416   -2.9181 H         1 <0>         0.1482
     38 H9         -4.5859    0.7666   -4.6800 H         1 <0>         0.1692
     39 H10         6.0486    3.5298   -0.2038 H         1 <0>         0.1151
     40 H11         8.4135    5.7007    2.6058 H         1 <0>         0.1251
     41 H12         4.7699    3.8722    3.8629 H         1 <0>         0.1301
@<TRIPOS>BOND
     1    1    6 ar
     2    1    2 ar
     3    1   30 1
     4    2    3 ar
     5    2   31 1
     6    3    4 ar
     7    3   18 1
     8    4    5 ar
     9    4   32 1
    10    5    6 ar
    11    5   33 1
    12    6    7 1
    13    7    8 1
    14    7   34 1
    15    8    9 2
    16    8   10 1
    17   10   11 1
    18   10   35 1
    19   11   16 ar
    20   11   12 ar
    21   12   13 ar
    22   12   36 1
    23   13   14 ar
    24   13   37 1
    25   14   15 ar
    26   14   17 1
    27   15   16 ar
    28   15   38 1
    29   18   19 2
    30   18   20 2
    31   18   21 1
    32   21   22 1
    33   22   27 ar
    34   22   23 ar
    35   23   24 ar
    36   23   39 1
    37   24   25 ar
    38   24   29 1
    39   25   26 ar
    40   25   40 1
    41   26   27 ar
    42   26   28 1
    43   27   41 1
@<TRIPOS>MOLECULE
ZINC13088069
   53    56     0     0     0
SMALL
USER_CHARGES

@<TRIPOS>ATOM
      1 C1         -0.0165    1.3620    0.0095 C.ar      1 <0>        -0.1457
      2 C2          1.1697    2.0834    0.0021 C.ar      1 <0>        -0.0990
      3 C3          2.3856    1.4362   -0.0134 C.ar      1 <0>        -0.1302
      4 C4          2.4281    0.0456   -0.0212 C.ar      1 <0>         0.0968
      5 C5          1.2234   -0.6807   -0.0132 C.ar      1 <0>        -0.0934
      6 C6          0.0021   -0.0041    0.0020 C.ar      1 <0>        -0.0682
      7 C7          1.6036   -2.0953   -0.0245 C.2       1 <0>        -0.1608
      8 C8          2.9451   -2.1410   -0.0380 C.2       1 <0>         0.0623
      9 N1          3.4551   -0.8713   -0.0363 N.pl3     1 <0>        -0.5915
     10 H1          4.3995   -0.6501   -0.0442 H         1 <0>         0.4176
     11 C9          0.6664   -3.2754   -0.0210 C.3       1 <0>         0.0146
     12 H2         -0.3642   -2.9209   -0.0086 H         1 <0>         0.1058
     13 C10         0.9012   -4.1168   -1.2772 C.3       1 <0>         0.1276
     14 N2         -0.0883   -5.1956   -1.3344 N.pl3     1 <0>        -1.1168
     15 S1         -0.3209   -6.0319   -2.7446 S.o2      1 <0>         2.6960
     16 O1         -1.3104   -7.0155   -2.4751 O.2       1 <0>        -0.9612
     17 O2         -0.4710   -5.0619   -3.7721 O.2       1 <0>        -0.9591
     18 C11         1.1730   -6.9012   -3.0872 C.ar      1 <0>        -0.6960
     19 C12         2.1636   -6.2967   -3.8416 C.ar      1 <0>        -0.0198
     20 C13         3.3354   -6.9702   -4.1140 C.ar      1 <0>        -0.1407
     21 C14         3.5217   -8.2679   -3.6257 C.ar      1 <0>         0.0306
     22 C15         2.5156   -8.8717   -2.8640 C.ar      1 <0>        -0.1461
     23 C16         1.3519   -8.1827   -2.5956 C.ar      1 <0>        -0.0124
     24 C17         4.7686   -8.9938   -3.9121 C.2       1 <0>        -0.1398
     25 C18         4.9448  -10.2471   -3.4387 C.2       1 <0>        -0.1358
     26 C19         6.1451  -10.9459   -3.7143 C.2       1 <0>         0.4968
     27 O3          7.0238  -10.4142   -4.3820 O.co2     1 <0>        -0.6894
     28 O4          6.3048  -12.0820   -3.2851 O.co2     1 <0>        -0.6923
     29 C20         0.9229   -4.1170    1.2025 C.ar      1 <0>        -0.0617
     30 C21         2.1708   -4.6750    1.4085 C.ar      1 <0>        -0.1017
     31 C22         2.4062   -5.4469    2.5307 C.ar      1 <0>        -0.1084
     32 C23         1.3939   -5.6615    3.4477 C.ar      1 <0>        -0.1097
     33 C24         0.1460   -5.1042    3.2428 C.ar      1 <0>        -0.1068
     34 C25        -0.0886   -4.3266    2.1225 C.ar      1 <0>        -0.0342
     35 Cl1        -1.6541   -3.6208    1.8677 Cl        1 <0>        -0.0665
     36 H3         -0.9613    1.8849    0.0259 H         1 <0>         0.1213
     37 H4          1.1388    3.1630    0.0081 H         1 <0>         0.1236
     38 H5          3.3028    2.0064   -0.0198 H         1 <0>         0.1189
     39 H6         -0.9246   -0.5587    0.0082 H         1 <0>         0.1208
     40 H7          3.5346   -3.0459   -0.0490 H         1 <0>         0.1707
     41 H8          0.8026   -3.4861   -2.1606 H         1 <0>         0.0915
     42 H9          1.9034   -4.5443   -1.2460 H         1 <0>         0.0698
     43 H10        -0.6073   -5.4200   -0.5462 H         1 <0>         0.4169
     44 H11         2.0182   -5.2950   -4.2181 H         1 <0>         0.1363
     45 H12         4.1073   -6.4974   -4.7031 H         1 <0>         0.1340
     46 H13         2.6517   -9.8734   -2.4838 H         1 <0>         0.1361
     47 H14         0.5762   -8.6457   -2.0038 H         1 <0>         0.1364
     48 H15         5.5434   -8.5250   -4.5007 H         1 <0>         0.1345
     49 H16         4.1701  -10.7159   -2.8500 H         1 <0>         0.1041
     50 H17         2.9618   -4.5081    0.6924 H         1 <0>         0.1302
     51 H18         3.3812   -5.8829    2.6911 H         1 <0>         0.1299
     52 H19         1.5784   -6.2650    4.3241 H         1 <0>         0.1312
     53 H20        -0.6447   -5.2721    3.9590 H         1 <0>         0.1331
@<TRIPOS>BOND
     1    1    6 ar
     2    1    2 ar
     3    1   36 1
     4    2    3 ar
     5    2   37 1
     6    3    4 ar
     7    3   38 1
     8    4    9 1
     9    4    5 ar
    10    5    6 ar
    11    5    7 1
    12    6   39 1
    13    7    8 2
    14    7   11 1
    15    8    9 1
    16    8   40 1
    17    9   10 1
    18   11   12 1
    19   11   13 1
    20   11   29 1
    21   13   14 1
    22   13   41 1
    23   13   42 1
    24   14   15 1
    25   14   43 1
    26   15   16 2
    27   15   17 2
    28   15   18 1
    29   18   23 ar
    30   18   19 ar
    31   19   20 ar
    32   19   44 1
    33   20   21 ar
    34   20   45 1
    35   21   22 ar
    36   21   24 1
    37   22   23 ar
    38   22   46 1
    39   23   47 1
    40   24   25 2
    41   24   48 1
    42   25   26 1
    43   25   49 1
    44   26   27 2
    45   26   28 1
    46   29   34 ar
    47   29   30 ar
    48   30   31 ar
    49   30   50 1
    50   31   32 ar
    51   31   51 1
    52   32   33 ar
    53   32   52 1
    54   33   34 ar
    55   33   53 1
    56   34   35 1
@<TRIPOS>MOLECULE
ZINC59892211
   59    61     0     0     0
SMALL
USER_CHARGES

@<TRIPOS>ATOM
      1 C1         -0.0409    1.5024    0.0136 C.3       1 <0>        -0.1623
      2 C2         -0.0145   -0.0043    0.0045 C.ar      1 <0>         0.0206
      3 C3         -0.7516   -0.7017   -0.9353 C.ar      1 <0>        -0.1323
      4 C4         -0.7295   -2.0824   -0.9464 C.ar      1 <0>        -0.0738
      5 C5          0.0344   -2.7707   -0.0127 C.ar      1 <0>         0.1024
      6 C6          0.7737   -2.0677    0.9292 C.ar      1 <0>        -0.0459
      7 C7          0.7511   -0.6865    0.9319 C.ar      1 <0>        -0.6025
      8 S1          1.6941    0.2068    2.1225 S.o2      1 <0>         2.6059
      9 O1          0.8181    1.1668    2.6971 O.2       1 <0>        -1.0245
     10 O2          2.3826   -0.7601    2.9037 O.2       1 <0>        -1.0311
     11 N1          2.8497    1.0562    1.2945 N.2       1 <0>        -1.0666
     12 C8          3.7539    1.8648    1.9884 C.ar      1 <0>         0.2878
     13 C9          3.6886    1.9526    3.3729 C.ar      1 <0>        -0.2570
     14 C10         4.5840    2.7522    4.0559 C.ar      1 <0>        -0.0627
     15 C11         5.5450    3.4656    3.3631 C.ar      1 <0>        -0.2186
     16 C12         5.6136    3.3810    1.9847 C.ar      1 <0>        -0.0706
     17 C13         4.7244    2.5784    1.2952 C.ar      1 <0>        -0.0934
     18 Cl1         4.8151    2.4673   -0.4349 Cl        1 <0>        -0.0918
     19 N2          0.0586   -4.1697   -0.0209 N.am      1 <0>        -0.6616
     20 C14        -0.0404   -4.8386   -1.1868 C.2       1 <0>         0.5103
     21 O3         -0.0541   -4.2300   -2.2358 O.2       1 <0>        -0.5177
     22 C15        -0.1340   -6.3427   -1.1871 C.3       1 <0>         0.1275
     23 H1         -1.0186   -6.6518   -0.6303 H         1 <0>         0.1183
     24 C16         1.1149   -6.9315   -0.5280 C.3       1 <0>        -0.1632
     25 N3         -0.2319   -6.8256   -2.5667 N.am      1 <0>        -0.7133
     26 C17        -0.8134   -8.0137   -2.8251 C.2       1 <0>         0.5222
     27 O4         -1.2556   -8.6831   -1.9155 O.2       1 <0>        -0.5393
     28 C18        -0.9141   -8.5106   -4.2443 C.3       1 <0>        -0.1038
     29 C19        -1.7231   -7.5142   -5.0772 C.3       1 <0>        -0.1127
     30 C20        -1.8253   -8.0186   -6.5180 C.3       1 <0>        -0.1178
     31 C21        -2.5224   -9.3805   -6.5334 C.3       1 <0>        -0.1226
     32 C22        -1.7134  -10.3769   -5.7004 C.3       1 <0>        -0.1199
     33 C23        -1.6111   -9.8725   -4.2596 C.3       1 <0>        -0.0988
     34 H2          0.7516    1.8836   -0.6304 H         1 <0>         0.0918
     35 H3         -1.0063    1.8511   -0.3530 H         1 <0>         0.0668
     36 H4          0.1129    1.8623    1.0309 H         1 <0>         0.1093
     37 H5         -1.3454   -0.1659   -1.6610 H         1 <0>         0.1299
     38 H6         -1.3059   -2.6264   -1.6800 H         1 <0>         0.1341
     39 H7          1.3686   -2.6000    1.6565 H         1 <0>         0.1410
     40 H8          2.9380    1.3965    3.9150 H         1 <0>         0.1033
     41 H9          4.5334    2.8207    5.1325 H         1 <0>         0.1069
     42 H10         6.2433    4.0906    3.8999 H         1 <0>         0.1096
     43 H11         6.3651    3.9398    1.4466 H         1 <0>         0.1139
     44 H12         0.1466   -4.6582    0.8125 H         1 <0>         0.4126
     45 H13         1.9996   -6.6224   -1.0848 H         1 <0>         0.0675
     46 H14         1.1878   -6.5721    0.4985 H         1 <0>         0.0743
     47 H15         1.0473   -8.0194   -0.5282 H         1 <0>         0.0770
     48 H16         0.1217   -6.2903   -3.2942 H         1 <0>         0.4111
     49 H17         0.0859   -8.6095   -4.6664 H         1 <0>         0.0986
     50 H18        -2.7231   -7.4153   -4.6550 H         1 <0>         0.0683
     51 H19        -1.2265   -6.5440   -5.0663 H         1 <0>         0.0703
     52 H20        -2.4017   -7.3088   -7.1114 H         1 <0>         0.0664
     53 H21        -0.8253   -8.1175   -6.9402 H         1 <0>         0.0648
     54 H22        -3.5224   -9.2816   -6.1112 H         1 <0>         0.0625
     55 H23        -2.5952   -9.7399   -7.5598 H         1 <0>         0.0623
     56 H24        -2.2100  -11.3471   -5.7113 H         1 <0>         0.0652
     57 H25        -0.7134  -10.4758   -6.1226 H         1 <0>         0.0625
     58 H26        -1.0348  -10.5823   -3.6662 H         1 <0>         0.0694
     59 H27        -2.6112   -9.7736   -3.8374 H         1 <0>         0.0698
@<TRIPOS>BOND
     1    1    2 1
     2    1   34 1
     3    1   35 1
     4    1   36 1
     5    2    7 ar
     6    2    3 ar
     7    3    4 ar
     8    3   37 1
     9    4    5 ar
    10    4   38 1
    11    5    6 ar
    12    5   19 1
    13    6    7 ar
    14    6   39 1
    15    7    8 1
    16    8    9 2
    17    8   10 2
    18    8   11 1
    19   11   12 1
    20   12   17 ar
    21   12   13 ar
    22   13   14 ar
    23   13   40 1
    24   14   15 ar
    25   14   41 1
    26   15   16 ar
    27   15   42 1
    28   16   17 ar
    29   16   43 1
    30   17   18 1
    31   19   20 am
    32   19   44 1
    33   20   21 2
    34   20   22 1
    35   22   23 1
    36   22   24 1
    37   22   25 1
    38   24   45 1
    39   24   46 1
    40   24   47 1
    41   25   26 am
    42   25   48 1
    43   26   27 2
    44   26   28 1
    45   28   33 1
    46   28   29 1
    47   28   49 1
    48   29   30 1
    49   29   50 1
    50   29   51 1
    51   30   31 1
    52   30   52 1
    53   30   53 1
    54   31   32 1
    55   31   54 1
    56   31   55 1
    57   32   33 1
    58   32   56 1
    59   32   57 1
    60   33   58 1
    61   33   59 1
@<TRIPOS>MOLECULE
ZINC13198794
   57    59     0     0     0
SMALL
USER_CHARGES
(E)-3-[3,4-dimethoxy-5-[[(1S)-1-tetralin-6-ylethyl]sulfamoyl]phenyl]prop-2-enoic acid
@<TRIPOS>ATOM
      1 C1          2.0166    1.6747    1.7999 C.3       1 <0>        -0.1663
      2 C2          1.5523    1.7205    0.3428 C.3       1 <0>         0.1941
      3 H1          1.5173    2.7563    0.0050 H         1 <0>         0.0925
      4 C3          2.5167    0.9442   -0.5164 C.ar      1 <0>        -0.0856
      5 C4          2.5222   -0.4379   -0.4782 C.ar      1 <0>        -0.1072
      6 C5          3.4097   -1.1414   -1.2656 C.ar      1 <0>        -0.1183
      7 C6          4.2987   -0.4727   -2.0976 C.ar      1 <0>        -0.0766
      8 C7          4.2898    0.9032   -2.1394 C.ar      1 <0>        -0.0707
      9 C8          3.3931    1.6098   -1.3479 C.ar      1 <0>        -0.1070
     10 C9          5.2174    1.6935   -3.0248 C.3       1 <0>        -0.0839
     11 C10         6.3919    0.8291   -3.4790 C.3       1 <0>        -0.1189
     12 C11         5.8353   -0.4751   -4.0621 C.3       1 <0>        -0.1207
     13 C12         5.2496   -1.3026   -2.9198 C.3       1 <0>        -0.0797
     14 N1          0.2170    1.1270    0.2368 N.pl3     1 <0>        -1.1012
     15 S1         -1.1250    2.0967    0.2695 S.o2      1 <0>         2.7038
     16 O1         -2.2493    1.2389    0.1301 O.2       1 <0>        -0.9550
     17 O2         -0.9671    2.9714    1.3781 O.2       1 <0>        -0.9522
     18 C13        -1.0765    3.1024   -1.1765 C.ar      1 <0>        -0.6600
     19 C14        -0.9421    4.4685   -1.0590 C.ar      1 <0>        -0.0433
     20 C15        -0.9034    5.2685   -2.2065 C.ar      1 <0>        -0.0151
     21 C16        -1.0016    4.6762   -3.4715 C.ar      1 <0>        -0.1468
     22 C17        -1.1361    3.3066   -3.5797 C.ar      1 <0>         0.0963
     23 C18        -1.1681    2.5156   -2.4313 C.ar      1 <0>         0.1529
     24 O3         -1.2945    1.1677   -2.5408 O.3       1 <0>        -0.3282
     25 C19        -2.6183    0.6500   -2.6875 C.3       1 <0>         0.0309
     26 O4         -1.2318    2.7279   -4.8067 O.3       1 <0>        -0.3064
     27 C20        -1.1859    3.5976   -5.9396 C.3       1 <0>         0.0203
     28 C21        -0.7596    6.7259   -2.0843 C.2       1 <0>        -0.1216
     29 C22        -0.7225    7.4963   -3.1935 C.2       1 <0>        -0.1278
     30 C23        -0.5837    8.9024   -3.0756 C.2       1 <0>         0.4677
     31 O5         -0.4981    9.4150   -1.9758 O.co2     1 <0>        -0.6309
     32 H2          2.0515    0.6389    2.1377 H         1 <0>         0.0628
     33 H3          3.0100    2.1162    1.8788 H         1 <0>         0.0701
     34 H4          1.3190    2.2362    2.4214 H         1 <0>         0.0762
     35 H5          1.8342   -0.9649    0.1663 H         1 <0>         0.1206
     36 H6          3.4132   -2.2209   -1.2354 H         1 <0>         0.1196
     37 H7          3.3848    2.6893   -1.3810 H         1 <0>         0.1230
     38 H8          4.6687    2.0427   -3.8995 H         1 <0>         0.0767
     39 H9          5.5963    2.5532   -2.4721 H         1 <0>         0.0755
     40 H10         6.9635    1.3578   -4.2418 H         1 <0>         0.0671
     41 H11         7.0346    0.6063   -2.6273 H         1 <0>         0.0647
     42 H12         5.0552   -0.2487   -4.7889 H         1 <0>         0.0657
     43 H13         6.6373   -1.0325   -4.5460 H         1 <0>         0.0660
     44 H14         6.0588   -1.6590   -2.2825 H         1 <0>         0.0738
     45 H15         4.7151   -2.1580   -3.3330 H         1 <0>         0.0724
     46 H16         0.1192    0.1665    0.1434 H         1 <0>         0.4186
     47 H17        -0.8669    4.9219   -0.0816 H         1 <0>         0.1537
     48 H18        -0.9719    5.2892   -4.3601 H         1 <0>         0.1462
     49 H19        -3.0314    0.9739   -3.6428 H         1 <0>         0.0466
     50 H20        -2.5882   -0.4391   -2.6552 H         1 <0>         0.0950
     51 H21        -3.2452    1.0203   -1.8763 H         1 <0>         0.0685
     52 H22        -0.2398    4.1389   -5.9441 H         1 <0>         0.0595
     53 H23        -1.2722    3.0092   -6.8531 H         1 <0>         0.1028
     54 H24        -2.0108    4.3081   -5.8858 H         1 <0>         0.0589
     55 H25        -0.6836    7.1810   -1.1079 H         1 <0>         0.1385
     56 H26        -0.7985    7.0412   -4.1699 H         1 <0>         0.1041
     57 O6         -0.5466    9.6719   -4.1834 O.co2     1 <0>        -0.7614
@<TRIPOS>BOND
     1    1    2 1
     2    1   32 1
     3    1   33 1
     4    1   34 1
     5    2    3 1
     6    2    4 1
     7    2   14 1
     8    4    9 ar
     9    4    5 ar
    10    5    6 ar
    11    5   35 1
    12    6    7 ar
    13    6   36 1
    14    7   13 1
    15    7    8 ar
    16    8    9 ar
    17    8   10 1
    18    9   37 1
    19   10   11 1
    20   10   38 1
    21   10   39 1
    22   11   12 1
    23   11   40 1
    24   11   41 1
    25   12   13 1
    26   12   42 1
    27   12   43 1
    28   13   44 1
    29   13   45 1
    30   14   15 1
    31   14   46 1
    32   15   16 2
    33   15   17 2
    34   15   18 1
    35   18   23 ar
    36   18   19 ar
    37   19   20 ar
    38   19   47 1
    39   20   21 ar
    40   20   28 1
    41   21   22 ar
    42   21   48 1
    43   22   23 ar
    44   22   26 1
    45   23   24 1
    46   24   25 1
    47   25   49 1
    48   25   50 1
    49   25   51 1
    50   26   27 1
    51   27   52 1
    52   27   53 1
    53   27   54 1
    54   28   29 2
    55   28   55 1
    56   29   30 1
    57   29   56 1
    58   30   31 2
    59   30   57 1
@<TRIPOS>MOLECULE
ZINC13460455
   54    56     0     0     0
SMALL
USER_CHARGES
4-[(4R)-5-(2-methoxyethoxycarbonyl)-6-methyl-1-(m-tolyl)-2-thioxo-3,4-dihydropyrimidin-4-yl]benzoic acid
@<TRIPOS>ATOM
      1 C1         -3.7440   10.2263   -3.7736 C.3       1 <0>        -0.1157
      2 C2         -4.6933    9.7104   -2.7230 C.ar      1 <0>        -0.0729
      3 C3         -5.6715   10.5414   -2.2079 C.ar      1 <0>        -0.1029
      4 C4         -6.5446   10.0717   -1.2442 C.ar      1 <0>        -0.1043
      5 C5         -6.4454    8.7688   -0.7964 C.ar      1 <0>        -0.0931
      6 C6         -5.4611    7.9336   -1.3077 C.ar      1 <0>         0.1297
      7 C7         -4.5858    8.4083   -2.2759 C.ar      1 <0>        -0.0872
      8 N1         -5.3547    6.6136   -0.8522 N.pl3     1 <0>        -0.4540
      9 C8         -6.0575    5.6453   -1.5116 C.2       1 <0>         0.2273
     10 C9         -5.9972    4.3530   -1.1222 C.2       1 <0>        -0.2429
     11 C10        -5.1250    4.0157    0.0701 C.3       1 <0>         0.2187
     12 H1         -5.7552    3.5440    0.8240 H         1 <0>         0.1034
     13 N2         -4.4095    5.1321    0.7105 N.pl3     1 <0>        -0.6376
     14 C11        -4.5701    6.3712    0.2055 C.2       1 <0>         0.5515
     15 S1         -3.7436    7.6783    0.9399 S.2       1 <0>        -0.5877
     16 C12        -4.1021    3.0024   -0.3745 C.ar      1 <0>        -0.1304
     17 C13        -4.3622    1.6513   -0.2278 C.ar      1 <0>        -0.0909
     18 C14        -3.4304    0.7183   -0.6331 C.ar      1 <0>        -0.0917
     19 C15        -2.2226    1.1401   -1.1924 C.ar      1 <0>        -0.0980
     20 C16        -1.9642    2.5051   -1.3323 C.ar      1 <0>        -0.0807
     21 C17        -2.9072    3.4272   -0.9280 C.ar      1 <0>        -0.1171
     22 C18        -1.2201    0.1467   -1.6288 C.2       1 <0>         0.4866
     23 O1         -1.4456   -1.0401   -1.5013 O.co2     1 <0>        -0.6303
     24 C19        -6.7235    3.3491   -1.8042 C.2       1 <0>         0.5378
     25 O2         -7.4177    3.6431   -2.7594 O.2       1 <0>        -0.5154
     26 O3         -6.6465    2.0653   -1.3957 O.3       1 <0>        -0.3257
     27 C20        -7.4064    1.1039   -2.1308 C.3       1 <0>         0.0711
     28 C21        -7.1944   -0.2850   -1.5250 C.3       1 <0>         0.0576
     29 O4         -7.7292   -0.3134   -0.2001 O.3       1 <0>        -0.3865
     30 C22        -7.5822   -1.5727    0.4591 C.3       1 <0>         0.0297
     31 C23        -6.9138    6.0247   -2.6922 C.3       1 <0>        -0.1187
     32 H2         -4.1634   10.0445   -4.7631 H         1 <0>         0.0727
     33 H3         -3.5941   11.2969   -3.6336 H         1 <0>         0.0699
     34 H4         -2.7878    9.7108   -3.6839 H         1 <0>         0.0696
     35 H5         -5.7537   11.5593   -2.5594 H         1 <0>         0.1279
     36 H6         -7.3077   10.7230   -0.8442 H         1 <0>         0.1311
     37 H7         -7.1306    8.4011   -0.0469 H         1 <0>         0.1248
     38 H8         -3.8217    7.7599   -2.6786 H         1 <0>         0.1264
     39 H9         -3.8357    4.9792    1.4775 H         1 <0>         0.4483
     40 H10        -5.2967    1.3265    0.2053 H         1 <0>         0.1292
     41 H11        -3.6349   -0.3359   -0.5183 H         1 <0>         0.1258
     42 H12        -1.0302    2.8381   -1.7601 H         1 <0>         0.1300
     43 H13        -2.7104    4.4833   -1.0394 H         1 <0>         0.1046
     44 H14        -8.4640    1.3634   -2.0833 H         1 <0>         0.0750
     45 H15        -7.0794    1.1005   -3.1706 H         1 <0>         0.0842
     46 H16        -7.7020   -1.0300   -2.1377 H         1 <0>         0.0716
     47 H17        -6.1280   -0.5077   -1.4912 H         1 <0>         0.0707
     48 H18        -6.5238   -1.8222    0.5341 H         1 <0>         0.0477
     49 H19        -8.0129   -1.5121    1.4586 H         1 <0>         0.0852
     50 H20        -8.0978   -2.3444   -0.1125 H         1 <0>         0.0398
     51 H21        -6.8428    7.0990   -2.8622 H         1 <0>         0.0748
     52 H22        -6.5672    5.4929   -3.5783 H         1 <0>         0.1066
     53 H23        -7.9508    5.7567   -2.4900 H         1 <0>         0.1058
     54 O5         -0.0581    0.5568   -2.1731 O.co2     1 <0>        -0.7518
@<TRIPOS>BOND
     1    1    2 1
     2    1   32 1
     3    1   33 1
     4    1   34 1
     5    2    7 ar
     6    2    3 ar
     7    3    4 ar
     8    3   35 1
     9    4    5 ar
    10    4   36 1
    11    5    6 ar
    12    5   37 1
    13    6    7 ar
    14    6    8 1
    15    7   38 1
    16    8   14 1
    17    8    9 1
    18    9   10 2
    19    9   31 1
    20   10   11 1
    21   10   24 1
    22   11   12 1
    23   11   13 1
    24   11   16 1
    25   13   14 1
    26   13   39 1
    27   14   15 2
    28   16   21 ar
    29   16   17 ar
    30   17   18 ar
    31   17   40 1
    32   18   19 ar
    33   18   41 1
    34   19   20 ar
    35   19   22 1
    36   20   21 ar
    37   20   42 1
    38   21   43 1
    39   22   23 2
    40   22   54 1
    41   24   25 2
    42   24   26 1
    43   26   27 1
    44   27   28 1
    45   27   44 1
    46   27   45 1
    47   28   29 1
    48   28   46 1
    49   28   47 1
    50   29   30 1
    51   30   48 1
    52   30   49 1
    53   30   50 1
    54   31   51 1
    55   31   52 1
    56   31   53 1
@<TRIPOS>MOLECULE
ZINC36052609
   62    64     0     0     0
SMALL
USER_CHARGES

@<TRIPOS>ATOM
      1 C1         -3.7641   -3.0401   -5.2215 C.3       1 <0>        -0.1484
      2 C2         -4.2145   -1.7698   -4.4973 C.3       1 <0>        -0.1299
      3 C3         -3.5536   -0.5516   -5.1455 C.3       1 <0>         0.1604
      4 H1         -3.7732   -0.5443   -6.2131 H         1 <0>         0.0735
      5 C4         -4.0986    0.7260   -4.5040 C.3       1 <0>        -0.1589
      6 N1         -2.1038   -0.6184   -4.9455 N.pl3     1 <0>        -0.7491
      7 C5         -1.2565    0.0917   -5.7793 C.2       1 <0>         0.5033
      8 O1         -1.7699    0.9264   -6.7156 O.3       1 <0>        -0.7016
      9 C6          0.0778   -0.0470   -5.6598 C.2       1 <0>        -0.4705
     10 C7          0.9742    0.6102   -6.6219 C.2       1 <0>         0.2336
     11 C8          0.4952    1.4610   -7.5558 C.2       1 <0>        -0.3090
     12 S1          1.9808    1.9404   -8.4146 S.3       1 <0>         0.1118
     13 C9          3.0889    1.0366   -7.5360 C.2       1 <0>         0.3237
     14 N2          4.3962    0.9182   -7.6399 N.2       1 <0>        -0.5946
     15 C10         5.1495    0.1555   -6.8630 C.2       1 <0>         0.2320
     16 C11         4.5799   -0.5931   -5.8533 C.2       1 <0>        -0.3753
     17 C12         3.0808   -0.5088   -5.6721 C.3       1 <0>         0.2714
     18 H2          2.6736   -1.5150   -5.7711 H         1 <0>         0.0747
     19 N3          2.3362    0.3843   -6.5994 N.pl3     1 <0>        -0.5236
     20 C13         2.8091   -0.0393   -4.2661 C.ar      1 <0>        -0.0811
     21 C14         2.7221    1.3134   -3.9943 C.ar      1 <0>        -0.0543
     22 C15         2.4725    1.7450   -2.7054 C.ar      1 <0>        -0.1486
     23 C16         2.3096    0.8222   -1.6861 C.ar      1 <0>         0.0918
     24 C17         2.3970   -0.5323   -1.9596 C.ar      1 <0>        -0.1520
     25 C18         2.6414   -0.9618   -3.2502 C.ar      1 <0>        -0.0770
     26 F1          2.0661    1.2430   -0.4256 F         1 <0>        -0.1458
     27 C19         5.3656   -1.4061   -5.0225 C.2       1 <0>         0.6119
     28 O2          5.2288   -2.6175   -5.0489 O.2       1 <0>        -0.5536
     29 N4          6.2715   -0.8482   -4.1951 N.am      1 <0>        -0.6101
     30 C20         6.3456    0.6092   -4.0659 C.3       1 <0>         0.1049
     31 C21         5.5541    1.0529   -2.8340 C.3       1 <0>        -0.1827
     32 C22         7.1821   -1.6991   -3.4251 C.3       1 <0>         0.1114
     33 C23         8.4554   -1.9483   -4.2359 C.3       1 <0>        -0.1660
     34 C24         6.6395    0.1042   -7.0830 C.3       1 <0>        -0.1112
     35 H3         -4.0560   -2.9834   -6.2701 H         1 <0>         0.0527
     36 H4         -2.6804   -3.1339   -5.1506 H         1 <0>         0.0578
     37 H5         -4.2349   -3.9079   -4.7597 H         1 <0>         0.0463
     38 H6         -5.2981   -1.6760   -4.5682 H         1 <0>         0.0659
     39 H7         -3.9225   -1.8265   -3.4486 H         1 <0>         0.0587
     40 H8         -5.1612    0.8201   -4.7277 H         1 <0>         0.0467
     41 H9         -3.9574    0.6791   -3.4242 H         1 <0>         0.0421
     42 H10        -3.5654    1.5889   -4.9030 H         1 <0>         0.0666
     43 H11        -1.7375   -1.1601   -4.2291 H         1 <0>         0.3818
     44 H12         0.4893   -0.6411   -4.8572 H         1 <0>         0.0835
     45 H13        -0.5239    1.7700   -7.7354 H         1 <0>         0.2347
     46 H14         2.8495    2.0330   -4.7894 H         1 <0>         0.1187
     47 H15         2.4049    2.8018   -2.4932 H         1 <0>         0.1301
     48 H16         2.2704   -1.2531   -1.1652 H         1 <0>         0.1302
     49 H17         2.7052   -2.0184   -3.4645 H         1 <0>         0.1280
     50 H18         7.3871    0.9118   -3.9570 H         1 <0>         0.0676
     51 H19         5.9231    1.0749   -4.9563 H         1 <0>         0.0885
     52 H20         5.4842    2.1405   -2.8193 H         1 <0>         0.0600
     53 H21         4.5524    0.6249   -2.8722 H         1 <0>         0.0777
     54 H22         6.0619    0.7093   -1.9328 H         1 <0>         0.0491
     55 H23         7.4386   -1.2030   -2.4891 H         1 <0>         0.0701
     56 H24         6.6959   -2.6508   -3.2105 H         1 <0>         0.0813
     57 H25         8.1988   -2.4444   -5.1720 H         1 <0>         0.0582
     58 H26         8.9416   -0.9966   -4.4505 H         1 <0>         0.0535
     59 H27         9.1329   -2.5814   -3.6630 H         1 <0>         0.0612
     60 H28         6.9062    0.7538   -7.9167 H         1 <0>         0.0768
     61 H29         7.1517    0.4409   -6.1817 H         1 <0>         0.0793
     62 H30         6.9382   -0.9192   -7.3099 H         1 <0>         0.0722
@<TRIPOS>BOND
     1    1    2 1
     2    1   35 1
     3    1   36 1
     4    1   37 1
     5    2    3 1
     6    2   38 1
     7    2   39 1
     8    3    4 1
     9    3    5 1
    10    3    6 1
    11    5   40 1
    12    5   41 1
    13    5   42 1
    14    6    7 1
    15    6   43 1
    16    7    8 1
    17    7    9 2
    18    9   10 1
    19    9   44 1
    20   10   19 1
    21   10   11 2
    22   11   12 1
    23   11   45 1
    24   12   13 1
    25   13   19 1
    26   13   14 2
    27   14   15 1
    28   15   16 2
    29   15   34 1
    30   16   17 1
    31   16   27 1
    32   17   18 1
    33   17   19 1
    34   17   20 1
    35   20   25 ar
    36   20   21 ar
    37   21   22 ar
    38   21   46 1
    39   22   23 ar
    40   22   47 1
    41   23   24 ar
    42   23   26 1
    43   24   25 ar
    44   24   48 1
    45   25   49 1
    46   27   28 2
    47   27   29 am
    48   29   30 1
    49   29   32 1
    50   30   31 1
    51   30   50 1
    52   30   51 1
    53   31   52 1
    54   31   53 1
    55   31   54 1
    56   32   33 1
    57   32   55 1
    58   32   56 1
    59   33   57 1
    60   33   58 1
    61   33   59 1
    62   34   60 1
    63   34   61 1
    64   34   62 1
@<TRIPOS>MOLECULE
ZINC39724690
   55    57     0     0     0
SMALL
USER_CHARGES

@<TRIPOS>ATOM
      1 C1         -0.0187    1.5258    0.0104 C.3       1 <0>        -0.1376
      2 C2          0.0021   -0.0041    0.0020 C.3       1 <0>        -0.0640
      3 C3         -1.4117   -0.5257    0.0127 C.ar      1 <0>         0.1783
      4 C4         -1.8398   -1.4040   -0.9649 C.ar      1 <0>        -0.3333
      5 C5         -3.1558   -1.8629   -0.9177 C.ar      1 <0>         0.4441
      6 O1         -3.6167   -2.7252   -1.8560 O.3       1 <0>        -0.7031
      7 N1         -3.9504   -1.4436    0.0591 N.ar      1 <0>        -0.6139
      8 C6         -3.5030   -0.6005    0.9788 C.ar      1 <0>         0.3224
      9 N2         -2.2561   -0.1518    0.9621 N.ar      1 <0>        -0.5806
     10 S1         -4.5907   -0.0685    2.2588 S.3       1 <0>         0.0177
     11 C7         -6.1493   -0.9215    1.8930 C.3       1 <0>        -0.0991
     12 H1         -5.9691   -1.9944    1.8257 H         1 <0>         0.1187
     13 C8         -6.7084   -0.4138    0.5624 C.3       1 <0>        -0.1400
     14 C9         -7.1424   -0.6469    2.9927 C.2       1 <0>         0.5481
     15 O2         -7.0406    0.3574    3.6649 O.2       1 <0>        -0.5095
     16 N3         -8.1437   -1.5175    3.2293 N.am      1 <0>        -0.7039
     17 C10        -9.1091   -1.2505    4.2984 C.3       1 <0>         0.2044
     18 H2         -9.0464   -0.2175    4.6403 H         1 <0>         0.1596
     19 C11       -10.5491   -1.6204    3.8689 C.3       1 <0>        -0.0666
     20 H3        -10.6340   -1.5224    2.7866 H         1 <0>         0.1349
     21 C12       -10.9020   -3.0321    4.2646 C.2       1 <0>        -0.1415
     22 C13       -10.1657   -3.6091    5.2066 C.2       1 <0>        -0.0676
     23 S2         -8.9181   -2.4375    5.6940 S.3       1 <0>        -0.1879
     24 C14       -10.3377   -4.9931    5.7677 C.3       1 <0>        -0.0514
     25 C15       -11.7161   -5.5249    5.3571 C.3       1 <0>        -0.1157
     26 C16       -11.9064   -5.2737    3.8577 C.3       1 <0>        -0.1205
     27 C17       -12.0647   -3.7745    3.6090 C.3       1 <0>        -0.0602
     28 C18       -11.5177   -0.6710    4.5258 C.2       1 <0>         0.4770
     29 O3        -12.3560   -1.0935    5.2865 O.2       1 <0>        -0.4828
     30 O4        -11.4492    0.6441    4.2659 O.3       1 <0>        -0.3476
     31 C19       -12.3985    1.4858    4.9235 C.3       1 <0>         0.0613
     32 C20       -12.1664    2.9394    4.5064 C.3       1 <0>        -0.1539
     33 H4          1.0039    1.9031    0.0027 H         1 <0>         0.0487
     34 H5         -0.5459    1.8868   -0.8726 H         1 <0>         0.0483
     35 H6         -0.5289    1.8773    0.9072 H         1 <0>         0.0650
     36 H7          0.5123   -0.3556   -0.8948 H         1 <0>         0.0695
     37 H8          0.5293   -0.3651    0.8851 H         1 <0>         0.0728
     38 H9         -1.1700   -1.7274   -1.7480 H         1 <0>         0.1125
     39 H10        -5.9901   -0.6124   -0.2330 H         1 <0>         0.1019
     40 H11        -7.6449   -0.9264    0.3426 H         1 <0>         0.0584
     41 H12        -6.8886    0.6591    0.6297 H         1 <0>         0.0633
     42 H13        -8.2251   -2.3208    2.6918 H         1 <0>         0.4110
     43 H14        -9.5609   -5.6471    5.3715 H         1 <0>         0.0878
     44 H15       -10.2688   -4.9577    6.8549 H         1 <0>         0.0834
     45 H16       -11.7711   -6.5946    5.5592 H         1 <0>         0.0733
     46 H17       -12.4919   -5.0030    5.9173 H         1 <0>         0.0696
     47 H18       -11.0364   -5.6421    3.3142 H         1 <0>         0.0683
     48 H19       -12.7987   -5.7957    3.5121 H         1 <0>         0.0706
     49 H20       -13.0053   -3.4313    4.0398 H         1 <0>         0.0810
     50 H21       -12.0621   -3.5808    2.5363 H         1 <0>         0.0739
     51 H22       -13.4075    1.1839    4.6427 H         1 <0>         0.0677
     52 H23       -12.2790    1.3940    6.0030 H         1 <0>         0.0695
     53 H24       -12.2859    3.0312    3.4269 H         1 <0>         0.0676
     54 H25       -12.8905    3.5814    5.0080 H         1 <0>         0.0799
     55 H26       -11.1573    3.2412    4.7872 H         1 <0>         0.0702
@<TRIPOS>BOND
     1    1    2 1
     2    1   33 1
     3    1   34 1
     4    1   35 1
     5    2   36 1
     6    2   37 1
     7    2    3 1
     8    3    4 ar
     9    3    9 ar
    10    4    5 ar
    11    4   38 1
    12    5    7 ar
    13    5    6 1
    14    7    8 ar
    15    8    9 ar
    16    8   10 1
    17   10   11 1
    18   11   12 1
    19   11   13 1
    20   11   14 1
    21   13   39 1
    22   13   40 1
    23   13   41 1
    24   14   15 2
    25   14   16 am
    26   16   17 1
    27   16   42 1
    28   17   18 1
    29   17   23 1
    30   17   19 1
    31   19   20 1
    32   19   21 1
    33   19   28 1
    34   21   27 1
    35   21   22 2
    36   22   23 1
    37   22   24 1
    38   24   25 1
    39   24   43 1
    40   24   44 1
    41   25   26 1
    42   25   45 1
    43   25   46 1
    44   26   27 1
    45   26   47 1
    46   26   48 1
    47   27   49 1
    48   27   50 1
    49   28   29 2
    50   28   30 1
    51   30   31 1
    52   31   32 1
    53   31   51 1
    54   31   52 1
    55   32   53 1
    56   32   54 1
    57   32   55 1
@<TRIPOS>MOLECULE
ZINC44321746
   53    56     0     0     0
SMALL
USER_CHARGES

@<TRIPOS>ATOM
      1 C1         -0.0173    1.4248    0.0099 C.3       1 <0>         0.0321
      2 O1          0.0021   -0.0041    0.0020 O.3       1 <0>        -0.3199
      3 C2         -1.2010   -0.6378    0.0101 C.ar      1 <0>         0.0550
      4 C3         -1.8079   -0.9636    1.2163 C.ar      1 <0>         0.0990
      5 C4         -3.0316   -1.6083    1.2210 C.ar      1 <0>        -0.1330
      6 C5         -3.6501   -1.9286    0.0263 C.ar      1 <0>        -0.0292
      7 C6         -3.0479   -1.6059   -1.1752 C.ar      1 <0>        -0.1048
      8 C7         -1.8273   -0.9553   -1.1862 C.ar      1 <0>        -0.0242
      9 Cl1        -1.0762   -0.5433   -2.6961 Cl        1 <0>        -0.0487
     10 C8         -4.9831   -2.6315    0.0345 C.3       1 <0>        -0.0782
     11 C9         -6.1070   -1.5934    0.0433 C.3       1 <0>         0.0992
     12 H1         -5.9683   -0.9149    0.8850 H         1 <0>         0.0890
     13 C10        -7.4355   -2.2924    0.1753 C.2       1 <0>         0.4920
     14 O2         -7.9034   -2.5088    1.2801 O.co2     1 <0>        -0.6865
     15 O3         -8.0425   -2.6415   -0.8229 O.co2     1 <0>        -0.6825
     16 N1         -6.0781   -0.8317   -1.2078 N.am      1 <0>        -0.6733
     17 C11        -6.5916    0.4137   -1.2506 C.2       1 <0>         0.6483
     18 O4         -7.0786    0.9047   -0.2515 O.2       1 <0>        -0.5716
     19 O5         -6.5650    1.1136   -2.4004 O.3       1 <0>        -0.3681
     20 C12        -7.1269    2.4273   -2.3733 C.3       1 <0>         0.1079
     21 C13        -7.0065    3.0621   -3.7602 C.3       1 <0>        -0.0074
     22 C14        -7.9086    2.3496   -4.7379 C.ar      1 <0>        -0.0797
     23 C15        -7.9503    1.0429   -5.1758 C.ar      1 <0>        -0.0826
     24 C16        -8.9046    0.6517   -6.0983 C.ar      1 <0>        -0.1100
     25 C17        -9.8183    1.5701   -6.5829 C.ar      1 <0>        -0.1198
     26 C18        -9.7839    2.8796   -6.1502 C.ar      1 <0>        -0.0987
     27 C19        -8.8239    3.2814   -5.2197 C.ar      1 <0>        -0.0639
     28 C20        -8.5622    4.6008   -4.5930 C.ar      1 <0>        -0.0452
     29 C21        -7.4834    4.4933   -3.7196 C.ar      1 <0>        -0.0851
     30 C22        -7.0472    5.5946   -3.0141 C.ar      1 <0>        -0.0943
     31 C23        -7.6821    6.8140   -3.1715 C.ar      1 <0>        -0.1155
     32 C24        -8.7551    6.9307   -4.0366 C.ar      1 <0>        -0.1168
     33 C25        -9.1978    5.8341   -4.7468 C.ar      1 <0>        -0.0989
     34 F1         -1.2034   -0.6514    2.3836 F         1 <0>        -0.1268
     35 H2          1.0053    1.8021    0.0021 H         1 <0>         0.0978
     36 H3         -0.5445    1.7859   -0.8732 H         1 <0>         0.0502
     37 H4         -0.5275    1.7763    0.9067 H         1 <0>         0.0481
     38 H5         -3.5043   -1.8619    2.1583 H         1 <0>         0.1508
     39 H6         -3.5332   -1.8578   -2.1066 H         1 <0>         0.1441
     40 H7         -5.0709   -3.2544   -0.8557 H         1 <0>         0.0891
     41 H8         -5.0589   -3.2566    0.9242 H         1 <0>         0.1018
     42 H9         -5.6894   -1.2237   -2.0054 H         1 <0>         0.3971
     43 H10        -8.1781    2.3671   -2.0913 H         1 <0>         0.0708
     44 H11        -6.5901    3.0371   -1.6467 H         1 <0>         0.0714
     45 H12        -5.9727    3.0206   -4.1030 H         1 <0>         0.1123
     46 H13        -7.2375    0.3244   -4.7989 H         1 <0>         0.1323
     47 H14        -8.9357   -0.3721   -6.4406 H         1 <0>         0.1286
     48 H15       -10.5613    1.2610   -7.3031 H         1 <0>         0.1250
     49 H16       -10.4989    3.5935   -6.5315 H         1 <0>         0.1203
     50 H17        -6.2099    5.5055   -2.3379 H         1 <0>         0.1264
     51 H18        -7.3395    7.6758   -2.6179 H         1 <0>         0.1274
     52 H19        -9.2484    7.8840   -4.1562 H         1 <0>         0.1258
     53 H20       -10.0360    5.9296   -5.4212 H         1 <0>         0.1228
@<TRIPOS>BOND
     1    1    2 1
     2    1   35 1
     3    1   36 1
     4    1   37 1
     5    2    3 1
     6    3    8 ar
     7    3    4 ar
     8    4    5 ar
     9    4   34 1
    10    5    6 ar
    11    5   38 1
    12    6    7 ar
    13    6   10 1
    14    7    8 ar
    15    7   39 1
    16    8    9 1
    17   10   11 1
    18   10   40 1
    19   10   41 1
    20   11   12 1
    21   11   13 1
    22   11   16 1
    23   13   14 2
    24   13   15 1
    25   16   17 am
    26   16   42 1
    27   17   18 2
    28   17   19 1
    29   19   20 1
    30   20   21 1
    31   20   43 1
    32   20   44 1
    33   21   29 1
    34   21   22 1
    35   21   45 1
    36   22   27 ar
    37   22   23 ar
    38   23   24 ar
    39   23   46 1
    40   24   25 ar
    41   24   47 1
    42   25   26 ar
    43   25   48 1
    44   26   27 ar
    45   26   49 1
    46   27   28 1
    47   28   33 ar
    48   28   29 ar
    49   29   30 ar
    50   30   31 ar
    51   30   50 1
    52   31   32 ar
    53   31   51 1
    54   32   33 ar
    55   32   52 1
    56   33   53 1
@<TRIPOS>MOLECULE
ZINC00480272
   32    34     0     0     0
SMALL
USER_CHARGES
2-[(2-nitrophenyl)methylsulfanyl]-1H-indole
@<TRIPOS>ATOM
      1 C1         -8.5806    3.1508   -2.2620 C.ar      1 <0>        -0.1432
      2 C2         -8.4108    3.2652   -0.8895 C.ar      1 <0>        -0.0963
      3 C3         -7.3007    2.7297   -0.2711 C.ar      1 <0>        -0.1297
      4 C4         -6.3408    2.0679   -1.0270 C.ar      1 <0>         0.1044
      5 C5         -6.5171    1.9538   -2.4186 C.ar      1 <0>        -0.0963
      6 C6         -7.6494    2.5032   -3.0248 C.ar      1 <0>        -0.0693
      7 C7         -5.3550    1.2173   -2.9179 C.2       1 <0>        -0.1654
      8 C8         -4.5744    0.9388   -1.8485 C.2       1 <0>         0.0699
      9 N1         -5.1543    1.4363   -0.7103 N.pl3     1 <0>        -0.5947
     10 H1         -4.7852    1.3584    0.1833 H         1 <0>         0.4122
     11 S1         -3.0470    0.0624   -1.9087 S.3       1 <0>        -0.0228
     12 C9         -2.4986    0.0172   -0.1802 C.3       1 <0>        -0.1051
     13 C10        -1.1844   -0.7147   -0.0891 C.ar      1 <0>        -0.0133
     14 C11         0.0013   -0.0046   -0.0525 C.ar      1 <0>        -0.1020
     15 C12         1.2068   -0.6762    0.0254 C.ar      1 <0>        -0.0637
     16 C13         1.2267   -2.0578    0.0719 C.ar      1 <0>        -0.1093
     17 C14         0.0411   -2.7675    0.0406 C.ar      1 <0>        -0.0522
     18 C15        -1.1648   -2.0958   -0.0373 C.ar      1 <0>        -0.0315
     19 N2         -2.4345   -2.8558   -0.0713 N.pl3     1 <0>         0.0263
     20 O1         -2.4257   -4.0635    0.0866 O.2       1 <0>        -0.1601
     21 O2         -3.4885   -2.2729   -0.2522 O.3       1 <0>        -0.1446
     22 H2         -9.4556    3.5760   -2.7310 H         1 <0>         0.1244
     23 H3         -9.1555    3.7790   -0.2998 H         1 <0>         0.1265
     24 H4         -7.1779    2.8241    0.7977 H         1 <0>         0.1196
     25 H5         -7.7878    2.4179   -4.0925 H         1 <0>         0.1246
     26 H6         -5.1582    0.9471   -3.9449 H         1 <0>         0.1523
     27 H7         -3.2445   -0.4988    0.4243 H         1 <0>         0.1256
     28 H8         -2.3736    1.0355    0.1881 H         1 <0>         0.1033
     29 H9         -0.0143    1.0746   -0.0891 H         1 <0>         0.1509
     30 H10         2.1333   -0.1216    0.0496 H         1 <0>         0.1491
     31 H11         2.1688   -2.5825    0.1324 H         1 <0>         0.1523
     32 H12         0.0567   -3.8468    0.0766 H         1 <0>         0.1582
@<TRIPOS>BOND
     1    1    6 ar
     2    1    2 ar
     3    1   22 1
     4    2    3 ar
     5    2   23 1
     6    3    4 ar
     7    3   24 1
     8    4    9 1
     9    4    5 ar
    10    5    6 ar
    11    5    7 1
    12    6   25 1
    13    7    8 2
    14    7   26 1
    15    8    9 1
    16    8   11 1
    17    9   10 1
    18   11   12 1
    19   12   13 1
    20   12   27 1
    21   12   28 1
    22   13   18 ar
    23   13   14 ar
    24   14   15 ar
    25   14   29 1
    26   15   16 ar
    27   15   30 1
    28   16   17 ar
    29   16   31 1
    30   17   18 ar
    31   17   32 1
    32   18   19 1
    33   19   20 2
    34   19   21 1
@<TRIPOS>MOLECULE
ZINC35019715
   38    39     0     0     0
SMALL
USER_CHARGES

@<TRIPOS>ATOM
      1 C1         -0.2909    1.7557   -0.0813 C.3       1 <0>        -0.1563
      2 C2         -0.0436    0.2461   -0.1075 C.3       1 <0>        -0.1047
      3 C3          0.8444   -0.1459    1.0751 C.3       1 <0>        -0.1489
      4 C4         -1.3804   -0.4915   -0.0079 C.3       1 <0>         0.1897
      5 H1         -1.1993   -1.5640    0.0628 H         1 <0>         0.0941
      6 C5         -2.1213   -0.0252    1.2187 C.ar      1 <0>        -0.0949
      7 C6         -2.8251    1.1643    1.1906 C.ar      1 <0>        -0.1105
      8 C7         -3.5047    1.5921    2.3158 C.ar      1 <0>        -0.1155
      9 C8         -3.4808    0.8301    3.4690 C.ar      1 <0>        -0.1135
     10 C9         -2.7778   -0.3597    3.4968 C.ar      1 <0>        -0.1169
     11 C10        -2.1017   -0.7896    2.3703 C.ar      1 <0>        -0.1053
     12 N1         -2.1837   -0.2096   -1.2002 N.pl3     1 <0>        -0.7159
     13 C11        -2.0037   -0.9693   -2.3601 C.ar      1 <0>         0.2759
     14 C12        -1.1499   -2.0648   -2.3486 C.ar      1 <0>        -0.1702
     15 C13        -0.9736   -2.8137   -3.4954 C.ar      1 <0>        -0.0522
     16 C14        -1.6474   -2.4733   -4.6563 C.ar      1 <0>         0.0479
     17 C15        -2.4986   -1.3815   -4.6703 C.ar      1 <0>        -0.0493
     18 C16        -2.6827   -0.6332   -3.5238 C.ar      1 <0>        -0.1024
     19 N2         -3.5979    0.5299   -3.5375 N.pl3     1 <0>         0.0430
     20 O1         -4.6243    0.4840   -4.1749 O.2       1 <0>        -0.1420
     21 O2         -3.3191    1.5259   -2.9115 O.3       1 <0>        -0.1737
     22 F1         -1.4735   -3.2073   -5.7771 F         1 <0>        -0.1274
     23 H2          0.6614    2.2812   -0.1522 H         1 <0>         0.0575
     24 H3         -0.9236    2.0350   -0.9238 H         1 <0>         0.0602
     25 H4         -0.7868    2.0265    0.8509 H         1 <0>         0.0649
     26 H5          0.4522   -0.0248   -1.0397 H         1 <0>         0.0784
     27 H6          1.0206   -1.2214    1.0564 H         1 <0>         0.0560
     28 H7          1.7968    0.3796    1.0042 H         1 <0>         0.0618
     29 H8          0.3486    0.1249    2.0073 H         1 <0>         0.0619
     30 H9         -2.8437    1.7595    0.2896 H         1 <0>         0.1247
     31 H10        -4.0539    2.5217    2.2940 H         1 <0>         0.1263
     32 H11        -4.0112    1.1647    4.3483 H         1 <0>         0.1246
     33 H12        -2.7589   -0.9548    4.3979 H         1 <0>         0.1256
     34 H13        -1.5555   -1.7211    2.3909 H         1 <0>         0.1240
     35 H14        -2.8404    0.5042   -1.1849 H         1 <0>         0.4129
     36 H15        -0.6239   -2.3304   -1.4435 H         1 <0>         0.1556
     37 H16        -0.3095   -3.6654   -3.4869 H         1 <0>         0.1554
     38 H17        -3.0228   -1.1176   -5.5769 H         1 <0>         0.1590
@<TRIPOS>BOND
     1    1    2 1
     2    1   23 1
     3    1   24 1
     4    1   25 1
     5    2    3 1
     6    2    4 1
     7    2   26 1
     8    3   27 1
     9    3   28 1
    10    3   29 1
    11    4    5 1
    12    4    6 1
    13    4   12 1
    14    6   11 ar
    15    6    7 ar
    16    7    8 ar
    17    7   30 1
    18    8    9 ar
    19    8   31 1
    20    9   10 ar
    21    9   32 1
    22   10   11 ar
    23   10   33 1
    24   11   34 1
    25   12   13 1
    26   12   35 1
    27   13   18 ar
    28   13   14 ar
    29   14   15 ar
    30   14   36 1
    31   15   16 ar
    32   15   37 1
    33   16   17 ar
    34   16   22 1
    35   17   18 ar
    36   17   38 1
    37   18   19 1
    38   19   20 2
    39   19   21 1
@<TRIPOS>MOLECULE
ZINC37060369
   32    33     0     0     0
SMALL
USER_CHARGES

@<TRIPOS>ATOM
      1 C1         -0.0187    1.5258    0.0104 C.3       1 <0>        -0.1679
      2 C2          0.0021   -0.0041    0.0020 C.3       1 <0>         0.1863
      3 H1          0.5293   -0.3651    0.8851 H         1 <0>         0.0956
      4 C3          0.7074   -0.4901   -1.2379 C.ar      1 <0>        -0.0921
      5 C4          0.0373   -0.5215   -2.4466 C.ar      1 <0>        -0.1004
      6 C5          0.6837   -0.9671   -3.5841 C.ar      1 <0>        -0.1047
      7 C6          2.0017   -1.3818   -3.5129 C.ar      1 <0>        -0.0311
      8 C7          2.6718   -1.3501   -2.3029 C.ar      1 <0>        -0.1043
      9 C8          2.0261   -0.8990   -1.1672 C.ar      1 <0>        -0.0926
     10 Cl1         2.8141   -1.9422   -4.9410 Cl        1 <0>        -0.0629
     11 N1         -1.3723   -0.5112    0.0124 N.pl3     1 <0>        -0.7288
     12 C9         -2.0533   -0.6606    1.2247 C.ar      1 <0>         0.1957
     13 C10        -1.4305   -0.3236    2.4188 C.ar      1 <0>        -0.1196
     14 C11        -2.1060   -0.4719    3.6148 C.ar      1 <0>        -0.0082
     15 C12        -3.4013   -0.9555    3.6246 C.ar      1 <0>        -0.0852
     16 C13        -4.0259   -1.2930    2.4379 C.ar      1 <0>        -0.1012
     17 C14        -3.3581   -1.1419    1.2365 C.ar      1 <0>         0.0740
     18 F1         -3.9702   -1.4664    0.0766 F         1 <0>        -0.1245
     19 N2         -1.4417   -0.1129    4.8878 N.pl3     1 <0>         0.0325
     20 O1         -0.3090    0.3096    4.8804 O.2       1 <0>        -0.1549
     21 O2         -2.0318   -0.2423    5.9350 O.3       1 <0>        -0.1496
     22 H2          1.0039    1.9031    0.0027 H         1 <0>         0.0757
     23 H3         -0.5459    1.8868   -0.8726 H         1 <0>         0.0654
     24 H4         -0.5289    1.8773    0.9072 H         1 <0>         0.0662
     25 H5         -0.9917   -0.1981   -2.5020 H         1 <0>         0.1297
     26 H6          0.1599   -0.9920   -4.5282 H         1 <0>         0.1372
     27 H7          3.7006   -1.6740   -2.2466 H         1 <0>         0.1387
     28 H8          2.5506   -0.8697   -0.2235 H         1 <0>         0.1372
     29 H9         -1.8100   -0.7432   -0.8215 H         1 <0>         0.4099
     30 H10        -0.4187    0.0539    2.4128 H         1 <0>         0.1615
     31 H11        -3.9264   -1.0701    4.5613 H         1 <0>         0.1615
     32 H12        -5.0375   -1.6712    2.4491 H         1 <0>         0.1612
@<TRIPOS>BOND
     1    1    2 1
     2    1   22 1
     3    1   23 1
     4    1   24 1
     5    2    3 1
     6    2    4 1
     7    2   11 1
     8    4    9 ar
     9    4    5 ar
    10    5    6 ar
    11    5   25 1
    12    6    7 ar
    13    6   26 1
    14    7    8 ar
    15    7   10 1
    16    8    9 ar
    17    8   27 1
    18    9   28 1
    19   11   12 1
    20   11   29 1
    21   12   17 ar
    22   12   13 ar
    23   13   14 ar
    24   13   30 1
    25   14   15 ar
    26   14   19 1
    27   15   16 ar
    28   15   31 1
    29   16   17 ar
    30   16   32 1
    31   17   18 1
    32   19   20 2
    33   19   21 1
@<TRIPOS>MOLECULE
ZINC39697195
   40    42     0     0     0
SMALL
USER_CHARGES

@<TRIPOS>ATOM
      1 C1         -1.3852   -3.5945   -1.6133 C.3       1 <0>        -0.1092
      2 C2         -0.0632   -3.0053   -1.1174 C.3       1 <0>        -0.0296
      3 H1          0.7826   -3.5271   -1.5652 H         1 <0>         0.1461
      4 C3          0.0063   -1.5163   -1.4112 C.2       1 <0>        -0.2145
      5 C4          0.1012   -0.9540   -0.1821 C.2       1 <0>         0.0382
      6 N1          0.0966   -1.8929    0.7661 N.2       1 <0>        -0.1709
      7 N2          0.0117   -3.0554    0.3529 N.2       1 <0>        -0.1343
      8 C5          0.1982    0.5272    0.0782 C.3       1 <0>        -0.0965
      9 S1         -0.0280   -0.7116   -2.9783 S.3       1 <0>         0.1254
     10 C6          1.4699   -1.2227   -3.7528 C.ar      1 <0>        -0.1064
     11 C7          2.4007   -1.9701   -3.0453 C.ar      1 <0>        -0.1142
     12 C8          3.5747   -2.3695   -3.6542 C.ar      1 <0>        -0.1085
     13 C9          3.8320   -2.0289   -4.9716 C.ar      1 <0>        -0.1020
     14 C10         2.9182   -1.2863   -5.6901 C.ar      1 <0>        -0.1336
     15 C11         1.7248   -0.8807   -5.0899 C.ar      1 <0>         0.1063
     16 N3          0.8126   -0.1494   -5.7985 N.2       1 <0>        -0.4586
     17 C12         0.4522   -0.5353   -6.9908 C.2       1 <0>         0.2104
     18 C13        -0.4947    0.2750   -7.7709 C.ar      1 <0>        -0.1154
     19 C14        -0.8886   -0.1379   -9.0478 C.ar      1 <0>        -0.0690
     20 C15        -1.7767    0.6265   -9.7730 C.ar      1 <0>        -0.1386
     21 C16        -2.2817    1.8027   -9.2433 C.ar      1 <0>        -0.0794
     22 C17        -1.9012    2.2225   -7.9832 C.ar      1 <0>        -0.1589
     23 C18        -1.0132    1.4645   -7.2367 C.ar      1 <0>         0.1615
     24 O1         -0.6427    1.8733   -5.9966 O.3       1 <0>        -0.4711
     25 H2         -2.2163   -3.0676   -1.1447 H         1 <0>         0.0653
     26 H3         -1.4489   -3.4840   -2.6958 H         1 <0>         0.0797
     27 H4         -1.4321   -4.6519   -1.3527 H         1 <0>         0.0809
     28 H5         -0.7973    0.9287    0.2678 H         1 <0>         0.0881
     29 H6          0.8323    0.7026    0.9472 H         1 <0>         0.0848
     30 H7          0.6296    1.0215   -0.7922 H         1 <0>         0.0874
     31 H8          2.2073   -2.2397   -2.0176 H         1 <0>         0.1208
     32 H9          4.2964   -2.9505   -3.0992 H         1 <0>         0.1288
     33 H10         4.7528   -2.3458   -5.4386 H         1 <0>         0.1302
     34 H11         3.1236   -1.0230   -6.7172 H         1 <0>         0.1296
     35 H12         0.8492   -1.4502   -7.4052 H         1 <0>         0.1103
     36 H13        -0.4972   -1.0539   -9.4649 H         1 <0>         0.1325
     37 H14        -2.0802    0.3072  -10.7591 H         1 <0>         0.1307
     38 H15        -2.9771    2.3954   -9.8191 H         1 <0>         0.1298
     39 H16        -2.2997    3.1407   -7.5777 H         1 <0>         0.1329
     40 H17         0.1387    2.4429   -5.9874 H         1 <0>         0.3911
@<TRIPOS>BOND
     1    1    2 1
     2    1   25 1
     3    1   26 1
     4    1   27 1
     5    2    3 1
     6    2    7 1
     7    2    4 1
     8    4    5 2
     9    4    9 1
    10    5    6 1
    11    5    8 1
    12    6    7 2
    13    8   28 1
    14    8   29 1
    15    8   30 1
    16    9   10 1
    17   10   15 ar
    18   10   11 ar
    19   11   12 ar
    20   11   31 1
    21   12   13 ar
    22   12   32 1
    23   13   14 ar
    24   13   33 1
    25   14   15 ar
    26   14   34 1
    27   15   16 1
    28   16   17 2
    29   17   18 1
    30   17   35 1
    31   18   23 ar
    32   18   19 ar
    33   19   20 ar
    34   19   36 1
    35   20   21 ar
    36   20   37 1
    37   21   22 ar
    38   21   38 1
    39   22   23 ar
    40   22   39 1
    41   23   24 1
    42   24   40 1
@<TRIPOS>MOLECULE
ZINC51698096
   44    45     0     0     0
SMALL
USER_CHARGES

@<TRIPOS>ATOM
      1 C1          1.0721    0.2112   -0.7689 C.3       1 <0>        -0.1655
      2 C2          0.7358   -1.2666   -0.9789 C.3       1 <0>         0.1198
      3 N1         -0.6757   -1.4962   -0.6610 N.pl3     1 <0>        -0.7120
      4 C3         -1.2141   -2.7674   -0.7775 C.ar      1 <0>         0.4365
      5 C4         -0.4186   -3.8391   -1.1917 C.ar      1 <0>        -0.2702
      6 C5         -0.9978   -5.0894   -1.2937 C.ar      1 <0>         0.1978
      7 N2         -2.2804   -5.2354   -0.9983 N.ar      1 <0>        -0.5433
      8 C6         -3.0117   -4.2011   -0.6077 C.ar      1 <0>         0.4139
      9 N3         -2.4926   -2.9865   -0.4918 N.ar      1 <0>        -0.5647
     10 C7         -4.4448   -4.4087   -0.2870 C.ar      1 <0>        -0.0475
     11 C8         -4.9834   -3.8787    0.8841 C.ar      1 <0>        -0.0337
     12 C9         -6.3177   -4.0746    1.1772 C.ar      1 <0>        -0.1351
     13 C10        -7.1201   -4.7957    0.3115 C.ar      1 <0>        -0.0608
     14 C11        -6.5909   -5.3240   -0.8523 C.ar      1 <0>        -0.1349
     15 C12        -5.2593   -5.1295   -1.1585 C.ar      1 <0>        -0.0331
     16 C13        -4.6858   -5.7004   -2.4297 C.3       1 <0>        -0.1062
     17 C14        -8.5761   -5.0070    0.6376 C.3       1 <0>        -0.1175
     18 C15        -4.1103   -3.0936    1.8288 C.3       1 <0>        -0.1048
     19 C16        -0.1788   -6.2742   -1.7370 C.3       1 <0>         0.1137
     20 O1          1.1633   -5.8562   -1.9938 O.3       1 <0>        -0.3888
     21 C17         2.0283   -6.9099   -2.4226 C.3       1 <0>         0.0328
     22 H1          2.1223    0.3820   -1.0054 H         1 <0>         0.0783
     23 H2          0.4486    0.8220   -1.4217 H         1 <0>         0.0639
     24 H3          0.8849    0.4823    0.2702 H         1 <0>         0.0639
     25 H4          0.9230   -1.5376   -2.0179 H         1 <0>         0.0674
     26 H5          1.3593   -1.8774   -0.3261 H         1 <0>         0.0676
     27 H6         -1.2334   -0.7582   -0.3690 H         1 <0>         0.4078
     28 H7          0.6253   -3.6932   -1.4272 H         1 <0>         0.1502
     29 H8         -6.7361   -3.6644    2.0845 H         1 <0>         0.1260
     30 H9         -7.2219   -5.8865   -1.5245 H         1 <0>         0.1264
     31 H10        -4.2241   -6.6650   -2.2190 H         1 <0>         0.0816
     32 H11        -5.4830   -5.8313   -3.1614 H         1 <0>         0.0625
     33 H12        -3.9353   -5.0178   -2.8284 H         1 <0>         0.0587
     34 H13        -9.1649   -4.1925    0.2156 H         1 <0>         0.0730
     35 H14        -8.9097   -5.9541    0.2135 H         1 <0>         0.0682
     36 H15        -8.7069   -5.0273    1.7195 H         1 <0>         0.0679
     37 H16        -4.0593   -2.0560    1.4990 H         1 <0>         0.0797
     38 H17        -4.5321   -3.1354    2.8330 H         1 <0>         0.0621
     39 H18        -3.1079   -3.5217    1.8377 H         1 <0>         0.0585
     40 H19        -0.1799   -7.0307   -0.9522 H         1 <0>         0.0791
     41 H20        -0.6091   -6.6936   -2.6464 H         1 <0>         0.0793
     42 H21         2.0730   -7.6795   -1.6520 H         1 <0>         0.0455
     43 H22         1.6438   -7.3424   -3.3462 H         1 <0>         0.0455
     44 H23         3.0278   -6.5114   -2.5965 H         1 <0>         0.0908
@<TRIPOS>BOND
     1    1    2 1
     2    1   22 1
     3    1   23 1
     4    1   24 1
     5    2    3 1
     6    2   25 1
     7    2   26 1
     8    3    4 1
     9    3   27 1
    10    4    9 ar
    11    4    5 ar
    12    5    6 ar
    13    5   28 1
    14    6    7 ar
    15    6   19 1
    16    7    8 ar
    17    8    9 ar
    18    8   10 1
    19   10   15 ar
    20   10   11 ar
    21   11   12 ar
    22   11   18 1
    23   12   13 ar
    24   12   29 1
    25   13   14 ar
    26   13   17 1
    27   14   15 ar
    28   14   30 1
    29   15   16 1
    30   16   31 1
    31   16   32 1
    32   16   33 1
    33   17   34 1
    34   17   35 1
    35   17   36 1
    36   18   37 1
    37   18   38 1
    38   18   39 1
    39   19   20 1
    40   19   40 1
    41   19   41 1
    42   20   21 1
    43   21   42 1
    44   21   43 1
    45   21   44 1
@<TRIPOS>MOLECULE
ZINC08205210
   38    40     0     0     0
SMALL
USER_CHARGES
N-[3-(2-furyl)-1-methyl-propyl]-1-phenyl-tetrazol-5-amine
@<TRIPOS>ATOM
      1 C1          3.3946    5.3961    3.3336 C.3       1 <0>        -0.1686
      2 C2          3.9887    4.9648    1.9913 C.3       1 <0>         0.1581
      3 H1          4.0515    5.8273    1.3278 H         1 <0>         0.1015
      4 C3          5.3890    4.3900    2.2144 C.3       1 <0>        -0.1256
      5 C4          6.0321    4.0742    0.8625 C.3       1 <0>        -0.0406
      6 C5          7.4113    3.5081    1.0823 C.2       1 <0>        -0.0137
      7 C6          7.7122    2.2058    1.2329 C.2       1 <0>        -0.2094
      8 C7          9.1123    2.1271    1.4129 C.2       1 <0>        -0.2141
      9 C8          9.5832    3.3860    1.3615 C.2       1 <0>        -0.0396
     10 O1          8.5491    4.2178    1.1553 O.3       1 <0>        -0.1748
     11 N1          3.1324    3.9429    1.3840 N.pl3     1 <0>        -0.6876
     12 C9          2.0367    4.3188    0.6276 C.2       1 <0>         0.5069
     13 N2          1.6493    5.5488    0.3706 N.2       1 <0>        -0.3673
     14 N3          0.5902    5.5448   -0.3557 N.2       1 <0>        -0.0091
     15 N4          0.2303    4.3351   -0.6180 N.2       1 <0>        -0.0875
     16 N5          1.1610    3.4884    0.0092 N.pl3     1 <0>        -0.3723
     17 C10         1.1768    2.0861    0.0020 C.ar      1 <0>         0.1400
     18 C11        -0.0167    1.3770    0.0096 C.ar      1 <0>        -0.1010
     19 C12         0.0021   -0.0041    0.0020 C.ar      1 <0>        -0.0940
     20 C13         1.2080   -0.6805   -0.0131 C.ar      1 <0>        -0.1117
     21 C14         2.3984    0.0231   -0.0203 C.ar      1 <0>        -0.0922
     22 C15         2.3860    1.4042   -0.0123 C.ar      1 <0>        -0.1363
     23 H2          2.3970    5.8056    3.1746 H         1 <0>         0.0664
     24 H3          3.3318    4.5336    3.9971 H         1 <0>         0.0593
     25 H4          4.0317    6.1564    3.7854 H         1 <0>         0.0750
     26 H5          6.0004    5.1190    2.7462 H         1 <0>         0.0947
     27 H6          5.3169    3.4765    2.8047 H         1 <0>         0.0777
     28 H7          5.4206    3.3453    0.3307 H         1 <0>         0.0888
     29 H8          6.1041    4.9877    0.2722 H         1 <0>         0.0872
     30 H9          7.0175    1.3789    1.2196 H         1 <0>         0.1460
     31 H10         9.6924    1.2285    1.5632 H         1 <0>         0.1485
     32 H11        10.6180    3.6780    1.4635 H         1 <0>         0.2034
     33 H12         3.3338    3.0027    1.5123 H         1 <0>         0.4132
     34 H13        -0.9589    1.9048    0.0170 H         1 <0>         0.1386
     35 H14        -0.9261   -0.5562    0.0076 H         1 <0>         0.1385
     36 H15         1.2202   -1.7604   -0.0190 H         1 <0>         0.1350
     37 H16         3.3388   -0.5079   -0.0317 H         1 <0>         0.1382
     38 H17         3.3161    1.9532   -0.0171 H         1 <0>         0.1284
@<TRIPOS>BOND
     1    1    2 1
     2    1   23 1
     3    1   24 1
     4    1   25 1
     5    2    3 1
     6    2    4 1
     7    2   11 1
     8    4    5 1
     9    4   26 1
    10    4   27 1
    11    5    6 1
    12    5   28 1
    13    5   29 1
    14    6   10 1
    15    6    7 2
    16    7    8 1
    17    7   30 1
    18    8    9 2
    19    8   31 1
    20    9   10 1
    21    9   32 1
    22   11   12 1
    23   11   33 1
    24   12   16 1
    25   12   13 2
    26   13   14 1
    27   14   15 2
    28   15   16 1
    29   16   17 1
    30   17   22 ar
    31   17   18 ar
    32   18   19 ar
    33   18   34 1
    34   19   20 ar
    35   19   35 1
    36   20   21 ar
    37   20   36 1
    38   21   22 ar
    39   21   37 1
    40   22   38 1
@<TRIPOS>MOLECULE
ZINC37843567
   34    34     0     0     0
SMALL
USER_CHARGES

@<TRIPOS>ATOM
      1 C1         -0.0187    1.5258    0.0104 C.3       1 <0>        -0.1776
      2 C2          0.0021   -0.0041    0.0020 C.3       1 <0>         0.1851
      3 H1          0.5293   -0.3651    0.8851 H         1 <0>         0.1110
      4 C3          0.7074   -0.4901   -1.2379 C.ar      1 <0>        -0.0871
      5 C4          0.0375   -0.5216   -2.4468 C.ar      1 <0>        -0.0607
      6 C5          0.6844   -0.9673   -3.5840 C.ar      1 <0>        -0.1107
      7 C6          2.0016   -1.3812   -3.5126 C.ar      1 <0>        -0.0525
      8 C7          2.6717   -1.3489   -2.3042 C.ar      1 <0>        -0.0436
      9 C8          2.0258   -0.8989   -1.1675 C.ar      1 <0>        -0.0453
     10 N1          4.0817   -1.7925   -2.2276 N.pl3     1 <0>         0.0310
     11 O1          4.6474   -2.1832   -3.2222 O.2       1 <0>        -0.1538
     12 O2          4.6678   -1.7641   -1.1706 O.3       1 <0>        -0.1525
     13 N2         -1.3723   -0.5112    0.0124 N.pl3     1 <0>        -1.1150
     14 S1         -2.0922   -0.9227    1.4458 S.o2      1 <0>         2.6114
     15 O3         -3.3848   -1.3877    1.0821 O.2       1 <0>        -0.9467
     16 O4         -1.1632   -1.7892    2.0825 O.2       1 <0>        -0.9445
     17 C9         -2.2247    0.6355    2.3652 C.3       1 <0>        -0.6363
     18 C10        -2.8828    0.3731    3.7213 C.3       1 <0>        -0.1247
     19 C11        -2.9945    1.6873    4.4967 C.3       1 <0>        -0.0279
     20 Cl1        -3.7700    1.3781    6.0948 Cl        1 <0>        -0.1741
     21 H2          1.0039    1.9031    0.0027 H         1 <0>         0.0793
     22 H3         -0.5459    1.8868   -0.8726 H         1 <0>         0.0724
     23 H4         -0.5289    1.8773    0.9072 H         1 <0>         0.0699
     24 H5         -0.9915   -0.1983   -2.5026 H         1 <0>         0.1428
     25 H6          0.1608   -0.9927   -4.5283 H         1 <0>         0.1519
     26 H7          2.5069   -1.7302   -4.4010 H         1 <0>         0.1565
     27 H8          2.5505   -0.8701   -0.2240 H         1 <0>         0.1578
     28 H9         -1.8607   -0.6058   -0.8203 H         1 <0>         0.4194
     29 H10        -1.2294    1.0523    2.5190 H         1 <0>         0.1383
     30 H11        -2.8307    1.3417    1.7978 H         1 <0>         0.1406
     31 H12        -3.8781   -0.0438    3.5676 H         1 <0>         0.0939
     32 H13        -2.2767   -0.3332    4.2887 H         1 <0>         0.0942
     33 H14        -1.9992    2.1042    4.6505 H         1 <0>         0.0988
     34 H15        -3.6006    2.3936    3.9293 H         1 <0>         0.0986
@<TRIPOS>BOND
     1    1    2 1
     2    1   21 1
     3    1   22 1
     4    1   23 1
     5    2    3 1
     6    2    4 1
     7    2   13 1
     8    4    9 ar
     9    4    5 ar
    10    5    6 ar
    11    5   24 1
    12    6    7 ar
    13    6   25 1
    14    7    8 ar
    15    7   26 1
    16    8    9 ar
    17    8   10 1
    18    9   27 1
    19   10   11 2
    20   10   12 1
    21   13   14 1
    22   13   28 1
    23   14   15 2
    24   14   16 2
    25   14   17 1
    26   17   18 1
    27   17   29 1
    28   17   30 1
    29   18   19 1
    30   18   31 1
    31   18   32 1
    32   19   20 1
    33   19   33 1
    34   19   34 1
@<TRIPOS>MOLECULE
ZINC47095627
   46    47     0     0     0
SMALL
USER_CHARGES

@<TRIPOS>ATOM
      1 C1         -0.0184    1.5028    0.0103 C.3       1 <0>        -0.0736
      2 C2          0.0021   -0.0041    0.0020 C.2       1 <0>         0.0743
      3 C3          0.0080   -0.8179   -1.1355 C.2       1 <0>        -0.2739
      4 C4          0.0279   -2.1072   -0.7249 C.2       1 <0>         0.0877
      5 N1          0.0343   -2.1090    0.6245 N.pl3     1 <0>        -0.3675
      6 N2          0.0231   -0.7768    1.0576 N.2       1 <0>        -0.2962
      7 C5          0.0548   -3.2948    1.4847 C.3       1 <0>         0.1400
      8 C6          1.5043   -3.6875    1.7773 C.3       1 <0>        -0.1196
      9 H1          2.0335   -2.8340    2.2010 H         1 <0>         0.0878
     10 C7          2.1883   -4.1180    0.4782 C.3       1 <0>        -0.1548
     11 C8          1.5270   -4.8478    2.7743 C.3       1 <0>         0.1453
     12 N3          2.9124   -5.1454    3.1459 N.am      1 <0>        -0.7424
     13 C9          3.1778   -6.1373    4.0189 C.2       1 <0>         0.7064
     14 O1          2.2673   -6.7852    4.4981 O.2       1 <0>        -0.5772
     15 N4          4.4524   -6.4111    4.3608 N.am      1 <0>        -0.6296
     16 C10         5.5495   -5.6305    3.7834 C.3       1 <0>         0.0768
     17 C11         4.7409   -7.4893    5.3097 C.3       1 <0>         0.2111
     18 C12         4.9302   -8.7821    4.5588 C.2       1 <0>        -0.0327
     19 C13         6.0974   -9.2518    4.0830 C.2       1 <0>        -0.1988
     20 C14         5.8159  -10.4852    3.4519 C.2       1 <0>        -0.2193
     21 C15         4.4935  -10.6955    3.5798 C.2       1 <0>        -0.0347
     22 O2          3.9631   -9.6635    4.2562 O.3       1 <0>        -0.1626
     23 C16         0.0401   -3.3230   -1.6152 C.3       1 <0>        -0.0970
     24 H2          1.0042    1.8801    0.0026 H         1 <0>         0.0761
     25 H3         -0.5455    1.8639   -0.8728 H         1 <0>         0.0774
     26 H4         -0.5286    1.8543    0.9071 H         1 <0>         0.0719
     27 H5         -0.0021   -0.4776   -2.1604 H         1 <0>         0.1456
     28 H6         -0.4577   -3.0734    2.4209 H         1 <0>         0.1000
     29 H7         -0.4500   -4.1185    0.9800 H         1 <0>         0.0971
     30 H8          1.6590   -4.9715    0.0544 H         1 <0>         0.0628
     31 H9          2.1721   -3.2914   -0.2321 H         1 <0>         0.0639
     32 H10         3.2209   -4.3978    0.6866 H         1 <0>         0.0581
     33 H11         0.9630   -4.5722    3.6654 H         1 <0>         0.0724
     34 H12         1.0762   -5.7286    2.3171 H         1 <0>         0.0718
     35 H13         3.6388   -4.6285    2.7636 H         1 <0>         0.3968
     36 H14         5.7562   -4.7692    4.4187 H         1 <0>         0.0619
     37 H15         6.4414   -6.2532    3.7141 H         1 <0>         0.0777
     38 H16         5.2671   -5.2881    2.7878 H         1 <0>         0.0659
     39 H17         5.6505   -7.2534    5.8621 H         1 <0>         0.1123
     40 H18         3.9090   -7.5923    6.0065 H         1 <0>         0.1037
     41 H19         7.0641   -8.7774    4.1664 H         1 <0>         0.1468
     42 H20         6.5262  -11.1339    2.9610 H         1 <0>         0.1482
     43 H21         3.9509  -11.5511    3.2057 H         1 <0>         0.2018
     44 H22         1.0706   -3.6023   -1.8347 H         1 <0>         0.0827
     45 H23        -0.4602   -4.1488   -1.1093 H         1 <0>         0.0706
     46 H24        -0.4812   -3.0975   -2.5455 H         1 <0>         0.0850
@<TRIPOS>BOND
     1    1    2 1
     2    1   24 1
     3    1   25 1
     4    1   26 1
     5    2    6 2
     6    2    3 1
     7    3    4 2
     8    3   27 1
     9    4    5 1
    10    4   23 1
    11    5    6 1
    12    5    7 1
    13    7    8 1
    14    7   28 1
    15    7   29 1
    16    8    9 1
    17    8   10 1
    18    8   11 1
    19   10   30 1
    20   10   31 1
    21   10   32 1
    22   11   12 1
    23   11   33 1
    24   11   34 1
    25   12   13 am
    26   12   35 1
    27   13   14 2
    28   13   15 am
    29   15   16 1
    30   15   17 1
    31   16   36 1
    32   16   37 1
    33   16   38 1
    34   17   18 1
    35   17   39 1
    36   17   40 1
    37   18   22 1
    38   18   19 2
    39   19   20 1
    40   19   41 1
    41   20   21 2
    42   20   42 1
    43   21   22 1
    44   21   43 1
    45   23   44 1
    46   23   45 1
    47   23   46 1
@<TRIPOS>MOLECULE
ZINC54414658
   44    44     0     0     0
SMALL
USER_CHARGES

@<TRIPOS>ATOM
      1 C1          0.3146    1.3346    0.3689 C.3       1 <0>        -0.1536
      2 C2          0.3471   -0.1937    0.3036 C.3       1 <0>        -0.1178
      3 C3          0.9117   -0.6345   -1.0484 C.3       1 <0>        -0.1074
      4 H1          1.8865   -0.1720   -1.2033 H         1 <0>         0.0703
      5 C4         -0.0412   -0.2018   -2.1645 C.3       1 <0>        -0.1397
      6 C5          1.0608   -2.1571   -1.0669 C.3       1 <0>         0.1184
      7 N1          1.7113   -2.5689   -2.3132 N.am      1 <0>        -0.6057
      8 C6          3.1714   -2.6705   -2.3786 C.3       1 <0>         0.0664
      9 C7          0.9667   -2.8544   -3.3996 C.2       1 <0>         0.5547
     10 O1         -0.2340   -2.6659   -3.3802 O.2       1 <0>        -0.5127
     11 C8          1.6102   -3.3970   -4.6153 C.ar      1 <0>        -0.0324
     12 C9          2.6960   -4.2676   -4.5039 C.ar      1 <0>        -0.1567
     13 C10         3.2952   -4.7722   -5.6397 C.ar      1 <0>        -0.0140
     14 C11         2.8241   -4.4193   -6.8906 C.ar      1 <0>        -0.1154
     15 C12         1.7438   -3.5534   -7.0124 C.ar      1 <0>         0.2795
     16 C13         1.1310   -3.0453   -5.8768 C.ar      1 <0>        -0.1456
     17 N2          1.2716   -3.1994   -8.2788 N.pl3     1 <0>        -0.7204
     18 C14         0.2100   -2.1985   -8.4113 C.3       1 <0>         0.1070
     19 C15        -0.1190   -1.9970   -9.8918 C.3       1 <0>        -0.1669
     20 N3          3.4725   -4.9650   -8.1041 N.pl3     1 <0>         0.0472
     21 O2          4.0605   -6.0201   -8.0526 O.2       1 <0>        -0.1466
     22 O3          3.4142   -4.3557   -9.1466 O.3       1 <0>        -0.1879
     23 H2          1.3257    1.7248    0.2527 H         1 <0>         0.0527
     24 H3         -0.3175    1.7191   -0.4316 H         1 <0>         0.0572
     25 H4         -0.0876    1.6486    1.3321 H         1 <0>         0.0549
     26 H5          0.9791   -0.5782    1.1040 H         1 <0>         0.0625
     27 H6         -0.6640   -0.5839    0.4197 H         1 <0>         0.0650
     28 H7         -0.1475    0.8829   -2.1514 H         1 <0>         0.0507
     29 H8          0.3610   -0.5158   -3.1277 H         1 <0>         0.0504
     30 H9         -1.0160   -0.6643   -2.0096 H         1 <0>         0.0604
     31 H10         1.6679   -2.4730   -0.2185 H         1 <0>         0.0819
     32 H11         0.0759   -2.6194   -1.0010 H         1 <0>         0.0870
     33 H12         3.4838   -3.6511   -2.0196 H         1 <0>         0.0651
     34 H13         3.4988   -2.5399   -3.4100 H         1 <0>         0.0807
     35 H14         3.6177   -1.8960   -1.7548 H         1 <0>         0.0757
     36 H15         3.0671   -4.5457   -3.5285 H         1 <0>         0.1538
     37 H16         4.1355   -5.4449   -5.5513 H         1 <0>         0.1561
     38 H17         0.2884   -2.3761   -5.9692 H         1 <0>         0.1535
     39 H18         1.6467   -3.6162   -9.0703 H         1 <0>         0.4170
     40 H19        -0.6805   -2.5416   -7.8846 H         1 <0>         0.0705
     41 H20         0.5451   -1.2544   -7.9818 H         1 <0>         0.0713
     42 H21         0.7715   -1.6540  -10.4185 H         1 <0>         0.0679
     43 H22        -0.4541   -2.9411  -10.3213 H         1 <0>         0.0645
     44 H23        -0.9089   -1.2524   -9.9904 H         1 <0>         0.0802
@<TRIPOS>BOND
     1    1    2 1
     2    1   23 1
     3    1   24 1
     4    1   25 1
     5    2    3 1
     6    2   26 1
     7    2   27 1
     8    3    4 1
     9    3    5 1
    10    3    6 1
    11    5   28 1
    12    5   29 1
    13    5   30 1
    14    6    7 1
    15    6   31 1
    16    6   32 1
    17    7    8 1
    18    7    9 am
    19    8   33 1
    20    8   34 1
    21    8   35 1
    22    9   10 2
    23    9   11 1
    24   11   16 ar
    25   11   12 ar
    26   12   13 ar
    27   12   36 1
    28   13   14 ar
    29   13   37 1
    30   14   15 ar
    31   14   20 1
    32   15   16 ar
    33   15   17 1
    34   16   38 1
    35   17   18 1
    36   17   39 1
    37   18   19 1
    38   18   40 1
    39   18   41 1
    40   19   42 1
    41   19   43 1
    42   19   44 1
    43   20   21 2
    44   20   22 1
@<TRIPOS>MOLECULE
ZINC63472415
   39    40     0     0     0
SMALL
USER_CHARGES

@<TRIPOS>ATOM
      1 C1         -0.0187    1.5258    0.0104 C.3       1 <0>        -0.1516
      2 C2          0.0021   -0.0041    0.0020 C.3       1 <0>        -0.1185
      3 C3          0.7421   -0.5109    1.2415 C.3       1 <0>        -0.0395
      4 C4          0.7625   -2.0177    1.2333 C.2       1 <0>         0.2540
      5 N1         -0.1669   -2.8112    1.7775 N.2       1 <0>        -0.5192
      6 C5          0.1506   -4.0629    1.5952 C.2       1 <0>         0.2756
      7 O1          1.3065   -4.1084    0.9209 O.3       1 <0>        -0.0966
      8 N2          1.6848   -2.7594    0.6904 N.2       1 <0>        -0.3294
      9 C6         -0.6463   -5.2533    2.0631 C.3       1 <0>         0.2135
     10 N3         -1.6006   -5.6420    1.0217 N.pl3     1 <0>        -0.7385
     11 C7         -2.4573   -6.7297    1.2280 C.ar      1 <0>         0.1928
     12 C8         -2.4069   -7.4343    2.4174 C.ar      1 <0>        -0.1187
     13 C9         -3.2639   -8.5194    2.6191 C.ar      1 <0>        -0.0179
     14 C10        -4.1674   -8.8877    1.6189 C.ar      1 <0>        -0.0758
     15 C11        -4.2122   -8.1816    0.4357 C.ar      1 <0>        -0.1672
     16 C12        -3.3663   -7.1001    0.2364 C.ar      1 <0>         0.1004
     17 O2         -3.4192   -6.4038   -0.9290 O.3       1 <0>        -0.3163
     18 C13        -4.3731   -6.8370   -1.9008 C.3       1 <0>         0.0560
     19 C14        -4.2860   -5.9390   -3.1365 C.3       1 <0>        -0.1545
     20 C15        -3.2159   -9.2528    3.8481 C.1       1 <0>         0.2555
     21 N4         -3.1778   -9.8346    4.8231 N.1       1 <0>        -0.4160
     22 H1          1.0039    1.9031    0.0027 H         1 <0>         0.0586
     23 H2         -0.5459    1.8868   -0.8726 H         1 <0>         0.0618
     24 H3         -0.5289    1.8773    0.9072 H         1 <0>         0.0600
     25 H4         -1.0205   -0.3814    0.0098 H         1 <0>         0.0711
     26 H5          0.5123   -0.3556   -0.8948 H         1 <0>         0.0667
     27 H6          1.7647   -0.1336    1.2338 H         1 <0>         0.0976
     28 H7          0.2319   -0.1594    2.1383 H         1 <0>         0.1042
     29 H8          0.0283   -6.0850    2.2664 H         1 <0>         0.1035
     30 H9         -1.1872   -4.9935    2.9730 H         1 <0>         0.1131
     31 H10        -1.6388   -5.1456    0.1892 H         1 <0>         0.4132
     32 H11        -1.7069   -7.1467    3.1879 H         1 <0>         0.1400
     33 H12        -4.8307   -9.7260    1.7727 H         1 <0>         0.1354
     34 H13        -4.9109   -8.4683   -0.3364 H         1 <0>         0.1408
     35 H14        -4.1600   -7.8676   -2.1848 H         1 <0>         0.0659
     36 H15        -5.3759   -6.7767   -1.4777 H         1 <0>         0.0660
     37 H16        -4.4991   -4.9085   -2.8525 H         1 <0>         0.0665
     38 H17        -3.2833   -5.9994   -3.5596 H         1 <0>         0.0665
     39 H18        -5.0136   -6.2695   -3.8778 H         1 <0>         0.0809
@<TRIPOS>BOND
     1    1    2 1
     2    1   22 1
     3    1   23 1
     4    1   24 1
     5    2    3 1
     6    2   25 1
     7    2   26 1
     8    3    4 1
     9    3   27 1
    10    3   28 1
    11    4    8 2
    12    4    5 1
    13    5    6 2
    14    6    7 1
    15    6    9 1
    16    7    8 1
    17    9   10 1
    18    9   29 1
    19    9   30 1
    20   10   11 1
    21   10   31 1
    22   11   16 ar
    23   11   12 ar
    24   12   13 ar
    25   12   32 1
    26   13   14 ar
    27   13   20 1
    28   14   15 ar
    29   14   33 1
    30   15   16 ar
    31   15   34 1
    32   16   17 1
    33   17   18 1
    34   18   19 1
    35   18   35 1
    36   18   36 1
    37   19   37 1
    38   19   38 1
    39   19   39 1
    40   20   21 3
@<TRIPOS>MOLECULE
ZINC01238279
   27    29     0     0     0
SMALL
USER_CHARGES
N-phenyl-5-pyrazin-2-yl-1,3,4-thiadiazol-2-amine
@<TRIPOS>ATOM
      1 C1          1.1776    1.7873   -0.0496 C.ar      1 <0>        -0.1339
      2 C2          0.0580    1.2285   -0.6384 C.ar      1 <0>        -0.0914
      3 C3         -1.1467    1.9032   -0.6136 C.ar      1 <0>        -0.1291
      4 C4         -1.2356    3.1397    0.0135 C.ar      1 <0>         0.1481
      5 C5         -0.1088    3.6983    0.6036 C.ar      1 <0>        -0.1460
      6 C6          1.0939    3.0205    0.5705 C.ar      1 <0>        -0.0944
      7 N1         -2.4543    3.8228    0.0451 N.pl3     1 <0>        -0.5947
      8 C7         -3.6444    3.1209   -0.0514 C.2       1 <0>         0.2837
      9 N2         -3.8521    1.8120   -0.0744 N.2       1 <0>        -0.3392
     10 N3         -5.0119    1.3226   -0.1674 N.2       1 <0>        -0.2028
     11 C8         -6.0719    2.1173   -0.2460 C.2       1 <0>         0.0473
     12 S1         -5.2742    3.7165   -0.1677 S.3       1 <0>         0.0915
     13 C9         -7.5049    1.7774   -0.3592 C.ar      1 <0>         0.1624
     14 C10        -7.9074    0.4398   -0.4034 C.ar      1 <0>         0.1007
     15 N4         -9.1891    0.1429   -0.4996 N.ar      1 <0>        -0.4298
     16 C11       -10.0910    1.1084   -0.5646 C.ar      1 <0>         0.0614
     17 C12        -9.6974    2.4346   -0.5265 C.ar      1 <0>         0.0633
     18 N5         -8.4179    2.7442   -0.4249 N.ar      1 <0>        -0.4272
     19 H1          2.1195    1.2595   -0.0744 H         1 <0>         0.1263
     20 H2          0.1269    0.2654   -1.1222 H         1 <0>         0.1292
     21 H3         -2.0196    1.4683   -1.0775 H         1 <0>         0.1430
     22 H4         -0.1733    4.6618    1.0874 H         1 <0>         0.1276
     23 H5          1.9703    3.4542    1.0291 H         1 <0>         0.1296
     24 H6         -2.4667    4.7886    0.1347 H         1 <0>         0.4320
     25 H7         -7.1712   -0.3489   -0.3549 H         1 <0>         0.1828
     26 H8        -11.1389    0.8606   -0.6480 H         1 <0>         0.1789
     27 H9        -10.4386    3.2182   -0.5802 H         1 <0>         0.1808
@<TRIPOS>BOND
     1    1    6 ar
     2    1    2 ar
     3    1   19 1
     4    2    3 ar
     5    2   20 1
     6    3    4 ar
     7    3   21 1
     8    4    5 ar
     9    4    7 1
    10    5    6 ar
    11    5   22 1
    12    6   23 1
    13    7    8 1
    14    7   24 1
    15    8   12 1
    16    8    9 2
    17    9   10 1
    18   10   11 2
    19   11   12 1
    20   11   13 1
    21   13   18 ar
    22   13   14 ar
    23   14   15 ar
    24   14   25 1
    25   15   16 ar
    26   16   17 ar
    27   16   26 1
    28   17   18 ar
    29   17   27 1
@<TRIPOS>MOLECULE
ZINC38574013
   31    32     0     0     0
SMALL
USER_CHARGES

@<TRIPOS>ATOM
      1 C1         -0.0184    1.5028    0.0103 C.3       1 <0>        -0.0970
      2 C2          0.0021   -0.0041    0.0020 C.2       1 <0>        -0.0081
      3 C3         -1.0863   -0.7768    0.0030 C.2       1 <0>        -0.1239
      4 C4         -0.5311   -2.1901   -0.0073 C.3       1 <0>         0.1572
      5 H1         -0.8370   -2.7309    0.8883 H         1 <0>         0.1397
      6 N1          0.9257   -1.9734   -0.0130 N.2       1 <0>        -0.1675
      7 N2          1.1248   -0.7562   -0.0132 N.2       1 <0>        -0.1269
      8 O1         -0.9465   -2.8877   -1.1833 O.3       1 <0>        -0.5239
      9 C5         -2.5305   -0.3465    0.0126 C.3       1 <0>         0.0382
     10 H2         -2.5853    0.7421    0.0186 H         1 <0>         0.1175
     11 C6         -3.2086   -0.8904    1.2436 C.ar      1 <0>        -0.0960
     12 C7         -3.2604   -2.2550    1.4582 C.ar      1 <0>        -0.1166
     13 C8         -3.8823   -2.7540    2.5874 C.ar      1 <0>        -0.1133
     14 C9         -4.4521   -1.8883    3.5023 C.ar      1 <0>        -0.1086
     15 C10        -4.3995   -0.5237    3.2881 C.ar      1 <0>        -0.1127
     16 C11        -3.7738   -0.0245    2.1610 C.ar      1 <0>        -0.0994
     17 C12        -3.2316   -0.8855   -1.2360 C.3       1 <0>         0.1322
     18 C13        -4.6423   -0.4652   -1.2266 C.1       1 <0>         0.2024
     19 N3         -5.7309   -0.1408   -1.2194 N.1       1 <0>        -0.3765
     20 C14        -2.5693   -0.3542   -2.4385 C.1       1 <0>         0.2039
     21 N4         -2.0582    0.0559   -3.3664 N.1       1 <0>        -0.3783
     22 H3          1.0042    1.8801    0.0026 H         1 <0>         0.0877
     23 H4         -0.5455    1.8639   -0.8728 H         1 <0>         0.0821
     24 H5         -0.5286    1.8543    0.9071 H         1 <0>         0.0860
     25 H6         -0.6185   -3.7956   -1.2385 H         1 <0>         0.4003
     26 H7         -2.8152   -2.9314    0.7435 H         1 <0>         0.1272
     27 H8         -3.9234   -3.8201    2.7548 H         1 <0>         0.1281
     28 H9         -4.9386   -2.2782    4.3841 H         1 <0>         0.1266
     29 H10        -4.8449    0.1527    4.0026 H         1 <0>         0.1281
     30 H11        -3.7294    1.0418    1.9956 H         1 <0>         0.1272
     31 H12        -3.1768   -1.9741   -1.2421 H         1 <0>         0.1646
@<TRIPOS>BOND
     1    1    2 1
     2    1   22 1
     3    1   23 1
     4    1   24 1
     5    2    7 1
     6    2    3 2
     7    3    4 1
     8    3    9 1
     9    4    5 1
    10    4    6 1
    11    4    8 1
    12    6    7 2
    13    8   25 1
    14    9   10 1
    15    9   11 1
    16    9   17 1
    17   11   16 ar
    18   11   12 ar
    19   12   13 ar
    20   12   26 1
    21   13   14 ar
    22   13   27 1
    23   14   15 ar
    24   14   28 1
    25   15   16 ar
    26   15   29 1
    27   16   30 1
    28   17   18 1
    29   17   20 1
    30   17   31 1
    31   18   19 3
    32   20   21 3
@<TRIPOS>MOLECULE
ZINC42417190
   36    37     0     0     0
SMALL
USER_CHARGES

@<TRIPOS>ATOM
      1 C1         -0.0187    1.5258    0.0104 C.3       1 <0>        -0.1555
      2 C2          0.0021   -0.0041    0.0020 C.3       1 <0>        -0.1186
      3 C3          0.7182   -0.4975   -1.2568 C.3       1 <0>        -0.0991
      4 H1          0.2444   -0.0644   -2.1377 H         1 <0>         0.0793
      5 C4          2.1873   -0.0730   -1.2073 C.3       1 <0>        -0.1523
      6 C5          0.6303   -2.0233   -1.3286 C.3       1 <0>         0.1476
      7 H2          1.1041   -2.4564   -0.4477 H         1 <0>         0.0945
      8 C6         -0.8388   -2.4477   -1.3781 C.3       1 <0>        -0.1756
      9 N1          1.3160   -2.4957   -2.5339 N.pl3     1 <0>        -0.6997
     10 C7          1.8242   -3.7749   -2.5804 C.2       1 <0>         0.4937
     11 C8          1.6897   -4.6257   -1.5002 C.2       1 <0>        -0.3270
     12 C9          2.2160   -5.9122   -1.5840 C.2       1 <0>         0.2656
     13 N2          2.8323   -6.3107   -2.6770 N.2       1 <0>        -0.5072
     14 C10         2.9702   -5.4981   -3.7309 C.2       1 <0>         0.4872
     15 N3          2.4655   -4.2287   -3.6967 N.pl3     1 <0>        -0.3658
     16 N4          2.7649   -3.6496   -4.9364 N.2       1 <0>        -0.3562
     17 C11         3.4042   -4.5534   -5.6381 C.2       1 <0>         0.2610
     18 N5          3.5388   -5.6619   -4.9205 N.2       1 <0>        -0.5380
     19 C12         2.0796   -6.8544   -0.4158 C.3       1 <0>        -0.1085
     20 H3          1.0039    1.9031    0.0027 H         1 <0>         0.0578
     21 H4         -0.5459    1.8868   -0.8726 H         1 <0>         0.0548
     22 H5         -0.5289    1.8773    0.9072 H         1 <0>         0.0578
     23 H6          0.5293   -0.3651    0.8851 H         1 <0>         0.0673
     24 H7         -1.0205   -0.3814    0.0098 H         1 <0>         0.0711
     25 H8          2.6611   -0.5061   -0.3263 H         1 <0>         0.0583
     26 H9          2.6975   -0.4246   -2.1040 H         1 <0>         0.0534
     27 H10         2.2499    1.0140   -1.1561 H         1 <0>         0.0648
     28 H11        -0.9014   -3.5347   -1.4293 H         1 <0>         0.0645
     29 H12        -1.3490   -2.0962   -0.4813 H         1 <0>         0.0799
     30 H13        -1.3126   -2.0146   -2.2590 H         1 <0>         0.0631
     31 H14         1.4122   -1.9076   -3.2993 H         1 <0>         0.4156
     32 H15         1.1842   -4.2977   -0.6039 H         1 <0>         0.1658
     33 H16         3.7732   -4.4143   -6.6435 H         1 <0>         0.2307
     34 H17         1.1541   -7.4220   -0.5130 H         1 <0>         0.0936
     35 H18         2.9266   -7.5403   -0.4014 H         1 <0>         0.0892
     36 H19         2.0593   -6.2825    0.5118 H         1 <0>         0.0871
@<TRIPOS>BOND
     1    1    2 1
     2    1   20 1
     3    1   21 1
     4    1   22 1
     5    2    3 1
     6    2   23 1
     7    2   24 1
     8    3    4 1
     9    3    5 1
    10    3    6 1
    11    5   25 1
    12    5   26 1
    13    5   27 1
    14    6    7 1
    15    6    8 1
    16    6    9 1
    17    8   28 1
    18    8   29 1
    19    8   30 1
    20    9   10 1
    21    9   31 1
    22   10   15 1
    23   10   11 2
    24   11   12 1
    25   11   32 1
    26   12   13 2
    27   12   19 1
    28   13   14 1
    29   14   18 2
    30   14   15 1
    31   15   16 1
    32   16   17 2
    33   17   18 1
    34   17   33 1
    35   19   34 1
    36   19   35 1
    37   19   36 1
@<TRIPOS>MOLECULE
ZINC49452832
   32    33     0     0     0
SMALL
USER_CHARGES

@<TRIPOS>ATOM
      1 C1         -0.0184    1.5028    0.0103 C.3       1 <0>        -0.1258
      2 C2          0.0021   -0.0041    0.0020 C.2       1 <0>         0.0440
      3 C3          0.0053   -0.6972   -1.2099 C.2       1 <0>        -0.2657
      4 C4         -0.0085   -0.1657   -2.5920 C.2       1 <0>         0.5603
      5 O1         -0.0253    1.0345   -2.7998 O.2       1 <0>        -0.5015
      6 N1         -0.0015   -1.0440   -3.6137 N.am      1 <0>        -0.6408
      7 H1         -0.0100   -0.7123   -4.5252 H         1 <0>         0.4278
      8 C5          0.0177   -2.3817   -3.3942 C.2       1 <0>         0.4119
      9 N2          0.0302   -2.8833   -2.1891 N.2       1 <0>        -0.4989
     10 C6          0.0249   -2.1077   -1.1127 C.2       1 <0>         0.1179
     11 S1          0.0371   -2.3955    0.6388 S.3       1 <0>         0.2320
     12 C7          0.0231   -0.6945    1.1794 C.2       1 <0>        -0.2482
     13 C8          0.0296   -0.1699    2.5466 C.2       1 <0>         0.5616
     14 O2          0.0152    1.0313    2.7372 O.2       1 <0>        -0.4819
     15 O3          0.0515   -1.0189    3.5947 O.3       1 <0>        -0.3393
     16 C9          0.0566   -0.4379    4.9003 C.3       1 <0>         0.1183
     17 C10        -1.2025    0.4114    5.0854 C.3       1 <0>        -0.1871
     18 C11         0.0821   -1.5483    5.9526 C.3       1 <0>        -0.1411
     19 C12         1.2956    0.4453    5.0606 C.3       1 <0>        -0.1871
     20 H2          1.0042    1.8801    0.0026 H         1 <0>         0.0825
     21 H3         -0.5455    1.8639   -0.8728 H         1 <0>         0.0856
     22 H4         -0.5286    1.8543    0.9071 H         1 <0>         0.0926
     23 H5          0.0223   -3.0519   -4.2411 H         1 <0>         0.2246
     24 H6         -2.0852   -0.2178    4.9712 H         1 <0>         0.0626
     25 H7         -1.1986    0.8546    6.0813 H         1 <0>         0.0736
     26 H8         -1.2207    1.2024    4.3358 H         1 <0>         0.0842
     27 H9          0.9791   -2.1533    5.8207 H         1 <0>         0.0681
     28 H10         0.0860   -1.1051    6.9484 H         1 <0>         0.0812
     29 H11        -0.8006   -2.1775    5.8384 H         1 <0>         0.0681
     30 H12         1.2775    1.2363    4.3109 H         1 <0>         0.0844
     31 H13         1.2995    0.8885    6.0565 H         1 <0>         0.0736
     32 H14         2.1926   -0.1598    4.9287 H         1 <0>         0.0626
@<TRIPOS>BOND
     1    1    2 1
     2    1   20 1
     3    1   21 1
     4    1   22 1
     5    2   12 2
     6    2    3 1
     7    3   10 2
     8    3    4 1
     9    4    5 2
    10    4    6 am
    11    6    7 1
    12    6    8 1
    13    8    9 2
    14    8   23 1
    15    9   10 1
    16   10   11 1
    17   11   12 1
    18   12   13 1
    19   13   14 2
    20   13   15 1
    21   15   16 1
    22   16   17 1
    23   16   18 1
    24   16   19 1
    25   17   24 1
    26   17   25 1
    27   17   26 1
    28   18   27 1
    29   18   28 1
    30   18   29 1
    31   19   30 1
    32   19   31 1
    33   19   32 1
@<TRIPOS>MOLECULE
ZINC57844433
   37    38     0     0     0
SMALL
USER_CHARGES

@<TRIPOS>ATOM
      1 C1         -0.0187    1.5258    0.0104 C.3       1 <0>        -0.1482
      2 C2          0.0021   -0.0041    0.0020 C.3       1 <0>        -0.0901
      3 C3          0.7309   -0.5033    1.2229 C.ar      1 <0>        -0.0647
      4 C4          2.0970   -0.7095    1.1762 C.ar      1 <0>        -0.1159
      5 C5          2.7656   -1.1675    2.2961 C.ar      1 <0>        -0.0855
      6 C6          2.0682   -1.4187    3.4629 C.ar      1 <0>        -0.1130
      7 C7          0.7022   -1.2116    3.5099 C.ar      1 <0>        -0.0933
      8 C8          0.0343   -0.7496    2.3912 C.ar      1 <0>        -0.1161
      9 C9          2.7969   -1.9189    4.6834 C.3       1 <0>         0.1394
     10 H1          3.7492   -2.3686    4.4026 H         1 <0>         0.1375
     11 C10         3.0108   -0.7929    5.6756 C.2       1 <0>         0.5303
     12 O1          3.6423    0.2270    5.5007 O.2       1 <0>        -0.4471
     13 N1          2.3522   -1.1612    6.7922 N.am      1 <0>        -0.5750
     14 C11         1.7582   -2.3510    6.6450 C.2       1 <0>         0.7017
     15 O2          1.1052   -2.8923    7.5154 O.2       1 <0>        -0.5323
     16 N2          1.9661   -2.8841    5.4238 N.am      1 <0>        -0.7190
     17 C12         2.2947   -0.3584    8.0163 C.3       1 <0>         0.1263
     18 C13         1.0848    0.5762    7.9568 C.3       1 <0>        -0.0097
     19 H2          0.1825   -0.0085    7.7776 H         1 <0>         0.1214
     20 C14         1.2738    1.5834    6.8207 C.3       1 <0>        -0.1465
     21 C15         0.9574    1.2959    9.2345 C.1       1 <0>         0.2096
     22 N3          0.8592    1.8514   10.2205 N.1       1 <0>        -0.4146
     23 H3          1.0039    1.9031    0.0027 H         1 <0>         0.0571
     24 H4         -0.5459    1.8868   -0.8726 H         1 <0>         0.0604
     25 H5         -0.5289    1.8773    0.9072 H         1 <0>         0.0563
     26 H6         -1.0205   -0.3814    0.0098 H         1 <0>         0.0740
     27 H7          0.5123   -0.3556   -0.8948 H         1 <0>         0.0747
     28 H8          2.6419   -0.5132    0.2646 H         1 <0>         0.1280
     29 H9          3.8328   -1.3293    2.2593 H         1 <0>         0.1297
     30 H10         0.1573   -1.4082    4.4213 H         1 <0>         0.1209
     31 H11        -1.0323   -0.5842    2.4291 H         1 <0>         0.1260
     32 H12         1.6340   -3.7344    5.0957 H         1 <0>         0.4446
     33 H13         2.2023   -1.0179    8.8793 H         1 <0>         0.1101
     34 H14         3.2061    0.2325    8.1065 H         1 <0>         0.1092
     35 H15         2.1761    2.1681    6.9998 H         1 <0>         0.0733
     36 H16         1.3680    1.0504    5.8746 H         1 <0>         0.0699
     37 H17         0.4118    2.2492    6.7783 H         1 <0>         0.0708
@<TRIPOS>BOND
     1    1    2 1
     2    1   23 1
     3    1   24 1
     4    1   25 1
     5    2    3 1
     6    2   26 1
     7    2   27 1
     8    3    8 ar
     9    3    4 ar
    10    4    5 ar
    11    4   28 1
    12    5    6 ar
    13    5   29 1
    14    6    7 ar
    15    6    9 1
    16    7    8 ar
    17    7   30 1
    18    8   31 1
    19    9   10 1
    20    9   16 1
    21    9   11 1
    22   11   12 2
    23   11   13 am
    24   13   14 am
    25   13   17 1
    26   14   15 2
    27   14   16 am
    28   16   32 1
    29   17   18 1
    30   17   33 1
    31   17   34 1
    32   18   19 1
    33   18   20 1
    34   18   21 1
    35   20   35 1
    36   20   36 1
    37   20   37 1
    38   21   22 3
@<TRIPOS>MOLECULE
ZINC05383830
   38    38     0     0     0
SMALL
USER_CHARGES
N'-methyl-N-[(4-tert-butylphenyl)methyleneamino]oxamide
@<TRIPOS>ATOM
      1 C1         -0.0187    1.5258    0.0104 C.3       1 <0>        -0.1397
      2 C2          0.0021   -0.0041    0.0020 C.3       1 <0>        -0.0340
      3 C3          0.7421   -0.5109    1.2415 C.3       1 <0>        -0.1397
      4 C4         -1.4333   -0.5336    0.0129 C.3       1 <0>        -0.1470
      5 C5          0.7074   -0.4901   -1.2379 C.ar      1 <0>        -0.0482
      6 C6          0.0357   -1.2943   -2.1416 C.ar      1 <0>        -0.1276
      7 C7          0.6730   -1.7382   -3.2814 C.ar      1 <0>        -0.0718
      8 C8          2.0038   -1.3833   -3.5166 C.ar      1 <0>        -0.0687
      9 C9          2.6775   -0.5756   -2.5967 C.ar      1 <0>        -0.0825
     10 C10         2.0255   -0.1346   -1.4642 C.ar      1 <0>        -0.1216
     11 C11         2.6937   -1.8583   -4.7297 C.2       1 <0>         0.1266
     12 N1          2.0645   -2.6089   -5.5828 N.2       1 <0>        -0.2352
     13 N2          2.7202   -3.0604   -6.7357 N.am      1 <0>        -0.5597
     14 C12         2.0673   -3.8393   -7.6208 C.2       1 <0>         0.5270
     15 O1          0.9108   -4.1498   -7.4191 O.2       1 <0>        -0.4810
     16 C13         2.7655   -4.3201   -8.8486 C.2       1 <0>         0.5142
     17 O2          3.9215   -4.0097   -9.0503 O.2       1 <0>        -0.5155
     18 N3          2.1126   -5.0990   -9.7338 N.am      1 <0>        -0.6993
     19 C14         2.7982   -5.5711  -10.9394 C.3       1 <0>         0.0837
     20 H1          1.0039    1.9031    0.0027 H         1 <0>         0.0580
     21 H2         -0.5459    1.8868   -0.8726 H         1 <0>         0.0573
     22 H3         -0.5289    1.8773    0.9072 H         1 <0>         0.0603
     23 H4          0.2319   -0.1594    2.1383 H         1 <0>         0.0603
     24 H5          0.7568   -1.6008    1.2356 H         1 <0>         0.0573
     25 H6          1.7647   -0.1336    1.2338 H         1 <0>         0.0580
     26 H7         -1.9605   -0.1726   -0.8702 H         1 <0>         0.0600
     27 H8         -1.4185   -1.6235    0.0069 H         1 <0>         0.0600
     28 H9         -1.9435   -0.1821    0.9097 H         1 <0>         0.0600
     29 H10        -0.9916   -1.5714   -1.9563 H         1 <0>         0.1317
     30 H11         0.1462   -2.3622   -3.9881 H         1 <0>         0.1348
     31 H12         3.7063   -0.2977   -2.7719 H         1 <0>         0.1291
     32 H13         2.5448    0.4901   -0.7525 H         1 <0>         0.1271
     33 H14         3.7223   -1.5821   -4.9092 H         1 <0>         0.1252
     34 H15         3.6440   -2.8123   -6.8968 H         1 <0>         0.3998
     35 H16         1.1888   -5.3470   -9.5727 H         1 <0>         0.4172
     36 H17         3.1232   -4.7153  -11.5312 H         1 <0>         0.0686
     37 H18         3.6657   -6.1663  -10.6545 H         1 <0>         0.0686
     38 H19         2.1158   -6.1828  -11.5295 H         1 <0>         0.0866
@<TRIPOS>BOND
     1    1    2 1
     2    1   20 1
     3    1   21 1
     4    1   22 1
     5    2    3 1
     6    2    4 1
     7    2    5 1
     8    3   23 1
     9    3   24 1
    10    3   25 1
    11    4   26 1
    12    4   27 1
    13    4   28 1
    14    5   10 ar
    15    5    6 ar
    16    6    7 ar
    17    6   29 1
    18    7    8 ar
    19    7   30 1
    20    8    9 ar
    21    8   11 1
    22    9   10 ar
    23    9   31 1
    24   10   32 1
    25   11   12 2
    26   11   33 1
    27   12   13 1
    28   13   14 am
    29   13   34 1
    30   14   15 2
    31   14   16 1
    32   16   17 2
    33   16   18 am
    34   18   19 1
    35   18   35 1
    36   19   36 1
    37   19   37 1
    38   19   38 1
@<TRIPOS>MOLECULE
ZINC37316878
   31    32     0     0     0
SMALL
USER_CHARGES

@<TRIPOS>ATOM
      1 C1         -0.0173    1.4248    0.0099 C.3       1 <0>         0.0340
      2 O1          0.0021   -0.0041    0.0020 O.3       1 <0>        -0.3434
      3 C2          0.6013   -0.6027   -1.0479 C.2       1 <0>         0.5446
      4 O2          1.0939    0.0714   -1.9324 O.2       1 <0>        -0.4691
      5 C3          0.6589   -2.0643   -1.1227 C.2       1 <0>        -0.0489
      6 C4          1.2372   -2.7952   -2.1219 C.2       1 <0>        -0.0947
      7 C5          1.0607   -4.1463   -1.7873 C.2       1 <0>        -0.2123
      8 C6          0.3910   -4.1815   -0.6137 C.2       1 <0>         0.0138
      9 O3          0.1552   -2.9253   -0.2140 O.3       1 <0>        -0.1457
     10 C7          1.9303   -2.2548   -3.3461 C.3       1 <0>         0.1890
     11 N1          3.2917   -1.8431   -2.9947 N.pl3     1 <0>        -0.7370
     12 C8          4.1349   -1.3059   -3.9738 C.ar      1 <0>         0.2158
     13 C9          3.6797   -1.1576   -5.2773 C.ar      1 <0>        -0.1807
     14 C10         4.5125   -0.6270   -6.2429 C.ar      1 <0>        -0.0944
     15 C11         5.8030   -0.2422   -5.9110 C.ar      1 <0>         0.0403
     16 C12         6.2586   -0.3904   -4.6094 C.ar      1 <0>        -0.0946
     17 C13         5.4253   -0.9156   -3.6412 C.ar      1 <0>        -0.1794
     18 O4          6.6224    0.2803   -6.8625 O.3       1 <0>        -0.4998
     19 H1          1.0053    1.8021    0.0021 H         1 <0>         0.0650
     20 H2         -0.5445    1.7859   -0.8732 H         1 <0>         0.0653
     21 H3         -0.5275    1.7763    0.9067 H         1 <0>         0.1078
     22 H4          1.3964   -4.9981   -2.3600 H         1 <0>         0.1651
     23 H5          0.0974   -5.0756   -0.0838 H         1 <0>         0.2190
     24 H6          1.9712   -3.0292   -4.1121 H         1 <0>         0.0752
     25 H7          1.3779   -1.3958   -3.7270 H         1 <0>         0.0835
     26 H8          3.6085   -1.9428   -2.0834 H         1 <0>         0.3989
     27 H9          2.6750   -1.4575   -5.5361 H         1 <0>         0.1241
     28 H10         4.1588   -0.5119   -7.2569 H         1 <0>         0.1267
     29 H11         7.2638   -0.0909   -4.3519 H         1 <0>         0.1268
     30 H12         5.7786   -1.0265   -2.6267 H         1 <0>         0.1226
     31 H13         6.5677    1.2423   -6.9435 H         1 <0>         0.3825
@<TRIPOS>BOND
     1    1    2 1
     2    1   19 1
     3    1   20 1
     4    1   21 1
     5    2    3 1
     6    3    4 2
     7    3    5 1
     8    5    9 1
     9    5    6 2
    10    6    7 1
    11    6   10 1
    12    7    8 2
    13    7   22 1
    14    8    9 1
    15    8   23 1
    16   10   11 1
    17   10   24 1
    18   10   25 1
    19   11   12 1
    20   11   26 1
    21   12   17 ar
    22   12   13 ar
    23   13   14 ar
    24   13   27 1
    25   14   15 ar
    26   14   28 1
    27   15   16 ar
    28   15   18 1
    29   16   17 ar
    30   16   29 1
    31   17   30 1
    32   18   31 1
@<TRIPOS>MOLECULE
ZINC43575827
   36    39     0     0     0
SMALL
USER_CHARGES

@<TRIPOS>ATOM
      1 C1          1.0849   -0.4044   -0.9898 C.ar      1 <0>        -0.2065
      2 C2          2.2667    0.3025   -0.9500 C.ar      1 <0>        -0.0160
      3 C3          2.3894    1.4084   -0.1074 C.ar      1 <0>        -0.1419
      4 C4          1.3111    1.7955    0.6944 C.ar      1 <0>         0.2049
      5 C5          0.1301    1.0827    0.6495 C.ar      1 <0>        -0.2387
      6 C6          0.0132   -0.0181   -0.1916 C.ar      1 <0>         0.2728
      7 N1         -1.1810   -0.7361   -0.2354 N.pl3     1 <0>        -0.8603
      8 F1          1.4253    2.8651    1.5119 F         1 <0>        -0.1178
      9 C7          3.6566    2.1686   -0.0624 C.2       1 <0>         0.2967
     10 N2          3.7874    3.4776   -0.1263 N.2       1 <0>        -0.3175
     11 N3          5.0261    3.8092   -0.0593 N.2       1 <0>        -0.0425
     12 N4          5.7671    2.7603    0.0502 N.2       1 <0>        -0.0752
     13 N5          4.9044    1.6502    0.0586 N.pl3     1 <0>        -0.3600
     14 C8          5.2738    0.2370    0.1713 C.3       1 <0>         0.2149
     15 C9          6.2435   -0.1280   -0.9545 C.3       1 <0>        -0.1727
     16 C10         5.7367   -1.0750   -2.0441 C.3       1 <0>        -0.1779
     17 C11         6.7501   -1.5706   -1.0106 C.3       1 <0>        -0.1544
     18 C12         5.9467   -0.0080    1.5233 C.3       1 <0>        -0.1679
     19 C13         5.4074   -1.1524    2.3838 C.3       1 <0>        -0.1592
     20 C14         5.1340    0.2992    2.7828 C.3       1 <0>        -0.1714
     21 H1          0.9888   -1.2574   -1.6451 H         1 <0>         0.1387
     22 H2          3.0979    0.0009   -1.5701 H         1 <0>         0.1356
     23 H3         -0.7036    1.3801    1.2683 H         1 <0>         0.1450
     24 H4         -1.2639   -1.5041   -0.8220 H         1 <0>         0.4065
     25 H5         -1.9291   -0.4676    0.3207 H         1 <0>         0.4058
     26 H6          4.3785   -0.3798    0.0939 H         1 <0>         0.1127
     27 H7          6.9345    0.6601   -1.2537 H         1 <0>         0.1210
     28 H8          4.7124   -1.4380   -1.9589 H         1 <0>         0.0973
     29 H9          6.0941   -0.9100   -3.0605 H         1 <0>         0.1023
     30 H10         7.7743   -1.7316   -1.3470 H         1 <0>         0.1037
     31 H11         6.3926   -2.2596   -0.2454 H         1 <0>         0.1024
     32 H12         7.0189    0.1851    1.5567 H         1 <0>         0.1223
     33 H13         4.5732   -1.7308    1.9866 H         1 <0>         0.0982
     34 H14         6.1249   -1.7126    2.9833 H         1 <0>         0.1058
     35 H15         5.6717    0.6939    3.6449 H         1 <0>         0.1026
     36 H16         4.1201    0.6757    2.6481 H         1 <0>         0.0909
@<TRIPOS>BOND
     1    1    6 ar
     2    1    2 ar
     3    1   21 1
     4    2    3 ar
     5    2   22 1
     6    3    4 ar
     7    3    9 1
     8    4    5 ar
     9    4    8 1
    10    5    6 ar
    11    5   23 1
    12    6    7 1
    13    7   24 1
    14    7   25 1
    15    9   13 1
    16    9   10 2
    17   10   11 1
    18   11   12 2
    19   12   13 1
    20   13   14 1
    21   14   15 1
    22   14   18 1
    23   14   26 1
    24   15   17 1
    25   15   16 1
    26   15   27 1
    27   16   17 1
    28   16   28 1
    29   16   29 1
    30   17   30 1
    31   17   31 1
    32   18   20 1
    33   18   19 1
    34   18   32 1
    35   19   20 1
    36   19   33 1
    37   19   34 1
    38   20   35 1
    39   20   36 1
@<TRIPOS>MOLECULE
ZINC50790344
   35    36     0     0     0
SMALL
USER_CHARGES

@<TRIPOS>ATOM
      1 C1         -0.0187    1.5258    0.0104 C.3       1 <0>        -0.1668
      2 C2          0.0021   -0.0041    0.0020 C.3       1 <0>         0.1161
      3 N1          0.7106   -0.4894    1.1889 N.pl3     1 <0>        -0.7131
      4 C3          0.8577   -1.8500    1.3993 C.ar      1 <0>         0.4287
      5 C4          0.3326   -2.7494    0.4727 C.ar      1 <0>        -0.2438
      6 C5          0.4798   -4.0935    0.6838 C.ar      1 <0>         0.0324
      7 C6          1.1597   -4.5199    1.8353 C.ar      1 <0>        -0.2565
      8 C7          1.6595   -3.5633    2.7205 C.ar      1 <0>         0.1944
      9 N2          1.5007   -2.2791    2.4767 N.ar      1 <0>        -0.5466
     10 C8          1.3430   -5.9581    2.1064 C.2       1 <0>         0.5684
     11 O1          0.9036   -6.7841    1.3296 O.2       1 <0>        -0.4715
     12 N3          1.9974   -6.3568    3.2151 N.am      1 <0>        -0.6216
     13 C9          2.1700   -7.7112    3.4704 C.2       1 <0>         0.2731
     14 N4          1.7726   -8.7365    2.7480 N.2       1 <0>        -0.5141
     15 C10         2.0166   -9.9762    3.1308 C.2       1 <0>         0.0855
     16 C11         2.6912  -10.1401    4.2952 C.2       1 <0>        -0.2161
     17 S1          2.9447   -8.4392    4.7752 S.3       1 <0>         0.1028
     18 C12         3.1156  -11.4083    4.9899 C.3       1 <0>        -0.0581
     19 C13         1.5649  -11.1567    2.3101 C.3       1 <0>        -0.0791
     20 H1          1.0039    1.9031    0.0027 H         1 <0>         0.0647
     21 H2         -0.5459    1.8868   -0.8726 H         1 <0>         0.0791
     22 H3         -0.5289    1.8773    0.9072 H         1 <0>         0.0647
     23 H4         -1.0205   -0.3814    0.0098 H         1 <0>         0.0692
     24 H5          0.5123   -0.3556   -0.8948 H         1 <0>         0.0691
     25 H6          1.0768    0.1425    1.8273 H         1 <0>         0.4087
     26 H7         -0.1858   -2.3888   -0.4035 H         1 <0>         0.1410
     27 H8          0.0815   -4.8098   -0.0195 H         1 <0>         0.1478
     28 H9          2.1845   -3.8789    3.6100 H         1 <0>         0.1570
     29 H10         4.1080  -11.6974    4.6441 H         1 <0>         0.0776
     30 H11         3.1403  -11.2419    6.0668 H         1 <0>         0.0731
     31 H12         2.4054  -12.2029    4.7613 H         1 <0>         0.0842
     32 H13         2.3461  -11.4250    1.5989 H         1 <0>         0.0756
     33 H14         1.3668  -12.0025    2.9685 H         1 <0>         0.0755
     34 H15         0.6550  -10.8963    1.7693 H         1 <0>         0.0757
     35 H16         2.3479   -5.6980    3.8348 H         1 <0>         0.4230
@<TRIPOS>BOND
     1    1    2 1
     2    1   20 1
     3    1   21 1
     4    1   22 1
     5    2    3 1
     6    2   23 1
     7    2   24 1
     8    3    4 1
     9    3   25 1
    10    4    9 ar
    11    4    5 ar
    12    5    6 ar
    13    5   26 1
    14    6    7 ar
    15    6   27 1
    16    7    8 ar
    17    7   10 1
    18    8    9 ar
    19    8   28 1
    20   10   11 2
    21   10   12 am
    22   12   13 1
    23   12   35 1
    24   13   17 1
    25   13   14 2
    26   14   15 1
    27   15   16 2
    28   15   19 1
    29   16   17 1
    30   16   18 1
    31   18   29 1
    32   18   30 1
    33   18   31 1
    34   19   32 1
    35   19   33 1
    36   19   34 1
@<TRIPOS>MOLECULE
ZINC59639966
   30    31     0     0     0
SMALL
USER_CHARGES

@<TRIPOS>ATOM
      1 C1          1.9998    1.2660   -0.8613 C.3       1 <0>         0.0962
      2 N1          1.4642   -0.0836   -0.6667 N.pl3     1 <0>        -0.7074
      3 C2          1.6036   -0.7146    0.5601 C.ar      1 <0>         0.4578
      4 C3          1.1012   -2.0052    0.7556 C.ar      1 <0>        -0.1195
      5 C4          1.2635   -2.5943    1.9955 C.ar      1 <0>         0.1921
      6 N2          1.8855   -1.9240    2.9551 N.ar      1 <0>        -0.5457
      7 C5          2.3509   -0.7028    2.7410 C.ar      1 <0>         0.6063
      8 N3          2.2211   -0.1045    1.5658 N.ar      1 <0>        -0.5983
      9 N4          2.9949   -0.0356    3.7707 N.pl3     1 <0>        -0.5456
     10 N5          3.1467   -0.6535    5.0188 N.2       1 <0>        -0.1931
     11 C6          3.6432    0.0119    6.0163 C.2       1 <0>         0.1011
     12 C7          3.6078    1.4862    6.0098 C.ar      1 <0>        -0.0713
     13 C8          2.8041    2.1647    5.0900 C.ar      1 <0>        -0.1481
     14 C9          2.7745    3.5435    5.0889 C.ar      1 <0>        -0.0795
     15 C10         3.5387    4.2565    5.9955 C.ar      1 <0>        -0.1420
     16 C11         4.3385    3.5914    6.9111 C.ar      1 <0>         0.1058
     17 C12         4.3728    2.2101    6.9267 C.ar      1 <0>        -0.1246
     18 F1          5.0818    4.2946    7.7933 F         1 <0>        -0.1339
     19 F2          0.4717   -2.6606   -0.2441 F         1 <0>        -0.1297
     20 H1          3.0763    1.2578   -0.6902 H         1 <0>         0.0621
     21 H2          1.7965    1.5942   -1.8807 H         1 <0>         0.0781
     22 H3          1.5253    1.9502   -0.1579 H         1 <0>         0.0617
     23 H4          1.0120   -0.5358   -1.3961 H         1 <0>         0.4192
     24 H5          0.8873   -3.5897    2.1805 H         1 <0>         0.1815
     25 H6          3.3405    0.8594    3.6273 H         1 <0>         0.4122
     26 H7          4.0824   -0.5140    6.8511 H         1 <0>         0.1954
     27 H8          2.2073    1.6103    4.3809 H         1 <0>         0.1420
     28 H9          2.1534    4.0682    4.3780 H         1 <0>         0.1391
     29 H10         3.5120    5.3362    5.9894 H         1 <0>         0.1409
     30 H11         4.9927    1.6919    7.6433 H         1 <0>         0.1472
@<TRIPOS>BOND
     1    1    2 1
     2    1   20 1
     3    1   21 1
     4    1   22 1
     5    2    3 1
     6    2   23 1
     7    3    8 ar
     8    3    4 ar
     9    4    5 ar
    10    4   19 1
    11    5    6 ar
    12    5   24 1
    13    6    7 ar
    14    7    8 ar
    15    7    9 1
    16    9   10 1
    17    9   25 1
    18   10   11 2
    19   11   12 1
    20   11   26 1
    21   12   17 ar
    22   12   13 ar
    23   13   14 ar
    24   13   27 1
    25   14   15 ar
    26   14   28 1
    27   15   16 ar
    28   15   29 1
    29   16   17 ar
    30   16   18 1
    31   17   30 1
@<TRIPOS>MOLECULE
ZINC01232915
   34    34     0     0     0
SMALL
USER_CHARGES
2-methyl-N-[2,2,2-trichloro-1-(4-nitrophenoxy)-ethyl]-propanamide
@<TRIPOS>ATOM
      1 C1         -2.3867    6.2137    0.0035 C.3       1 <0>        -0.1489
      2 C2         -2.5039    5.8080    1.4741 C.3       1 <0>        -0.1096
      3 C3         -3.9052    6.1465    1.9864 C.3       1 <0>        -0.1366
      4 C4         -2.2648    4.3261    1.6070 C.2       1 <0>         0.5307
      5 O1         -3.1301    3.6110    2.0662 O.2       1 <0>        -0.5158
      6 N1         -1.0895    3.7953    1.2154 N.am      1 <0>        -0.7120
      7 C5         -0.8913    2.3443    1.2561 C.3       1 <0>         0.3024
      8 H1         -1.8591    1.8442    1.2212 H         1 <0>         0.1460
      9 C6         -0.0496    1.9107    0.0542 C.3       1 <0>         0.0947
     10 Cl1         0.1944    0.1250    0.1042 Cl        1 <0>        -0.0581
     11 Cl2         1.5514    2.7379    0.1118 Cl        1 <0>        -0.0614
     12 Cl3        -0.9028    2.3583   -1.4698 Cl        1 <0>        -0.0542
     13 O2         -0.2151    1.9896    2.4639 O.3       1 <0>        -0.2931
     14 C7         -0.5712    0.8155    3.0484 C.ar      1 <0>         0.1826
     15 C8         -1.5806    0.0416    2.4944 C.ar      1 <0>        -0.2010
     16 C9         -1.9374   -1.1538    3.0878 C.ar      1 <0>        -0.0075
     17 C10        -1.2968   -1.5740    4.2387 C.ar      1 <0>        -0.0765
     18 C11        -0.2940   -0.8020    4.7957 C.ar      1 <0>        -0.0127
     19 C12         0.0701    0.3916    4.2033 C.ar      1 <0>        -0.1382
     20 N2         -1.6853   -2.8522    4.8758 N.pl3     1 <0>         0.0321
     21 O3         -1.1218   -3.2232    5.8899 O.2       1 <0>        -0.1587
     22 O4         -2.5684   -3.5331    4.3860 O.3       1 <0>        -0.1599
     23 H2         -2.5596    7.2856   -0.0927 H         1 <0>         0.0762
     24 H3         -1.3884    5.9725   -0.3615 H         1 <0>         0.0612
     25 H4         -3.1287    5.6719   -0.5831 H         1 <0>         0.0649
     26 H5         -1.7619    6.3498    2.0606 H         1 <0>         0.1061
     27 H6         -3.9887    5.8576    3.0341 H         1 <0>         0.0644
     28 H7         -4.0781    7.2184    1.8903 H         1 <0>         0.0690
     29 H8         -4.6472    5.6048    1.3999 H         1 <0>         0.0652
     30 H9         -0.3748    4.3740    0.9067 H         1 <0>         0.4147
     31 H10        -2.0841    0.3714    1.5977 H         1 <0>         0.1483
     32 H11        -2.7201   -1.7588    2.6544 H         1 <0>         0.1608
     33 H12         0.2051   -1.1326    5.6946 H         1 <0>         0.1649
     34 H13         0.8537    0.9941    4.6385 H         1 <0>         0.1598
@<TRIPOS>BOND
     1    1    2 1
     2    1   23 1
     3    1   24 1
     4    1   25 1
     5    2    3 1
     6    2    4 1
     7    2   26 1
     8    3   27 1
     9    3   28 1
    10    3   29 1
    11    4    5 2
    12    4    6 am
    13    6    7 1
    14    6   30 1
    15    7    8 1
    16    7    9 1
    17    7   13 1
    18    9   10 1
    19    9   11 1
    20    9   12 1
    21   13   14 1
    22   14   19 ar
    23   14   15 ar
    24   15   16 ar
    25   15   31 1
    26   16   17 ar
    27   16   32 1
    28   17   18 ar
    29   17   20 1
    30   18   19 ar
    31   18   33 1
    32   19   34 1
    33   20   21 2
    34   20   22 1
@<TRIPOS>MOLECULE
ZINC05637135
   44    46     0     0     0
SMALL
USER_CHARGES
N-[(2,3,4-trimethoxyphenyl)methyleneamino]quinolin-2-amine
@<TRIPOS>ATOM
      1 C1          8.3573    3.1415   -0.0621 C.3       1 <0>         0.0227
      2 O1          7.1521    3.9092   -0.0460 O.3       1 <0>        -0.3028
      3 C2          5.9807    3.2191   -0.0381 C.ar      1 <0>         0.1365
      4 C3          5.9957    1.8306   -0.0458 C.ar      1 <0>        -0.2085
      5 C4          4.8126    1.1232   -0.0379 C.ar      1 <0>        -0.0431
      6 C5          3.5916    1.8030   -0.0226 C.ar      1 <0>        -0.0976
      7 C6          3.5754    3.2040   -0.0207 C.ar      1 <0>         0.1548
      8 C7          4.7718    3.9062   -0.0229 C.ar      1 <0>         0.0368
      9 O2          4.7624    5.2672   -0.0159 O.3       1 <0>        -0.3178
     10 C8          4.7455    5.9224   -1.2858 C.3       1 <0>         0.0380
     11 O3          2.3919    3.8725   -0.0119 O.3       1 <0>        -0.3041
     12 C9          1.8355    4.1900    1.2654 C.3       1 <0>         0.0658
     13 C10         2.3257    1.0489   -0.0145 C.2       1 <0>         0.0828
     14 N1          1.1926    1.6828   -0.0003 N.2       1 <0>        -0.1827
     15 N2         -0.0111    0.9658    0.0074 N.pl3     1 <0>        -0.5678
     16 C11        -1.2206    1.6424    0.0168 C.ar      1 <0>         0.4330
     17 C12        -2.4162    0.9085    0.0127 C.ar      1 <0>        -0.2087
     18 C13        -3.6122    1.5600    0.0282 C.ar      1 <0>        -0.0221
     19 C14        -3.6051    2.9704    0.0354 C.ar      1 <0>        -0.1441
     20 C15        -4.8011    3.7043    0.0442 C.ar      1 <0>        -0.0819
     21 C16        -4.7561    5.0657    0.0514 C.ar      1 <0>        -0.1352
     22 C17        -3.5374    5.7402    0.0491 C.ar      1 <0>        -0.0896
     23 C18        -2.3586    5.0593    0.0402 C.ar      1 <0>        -0.1063
     24 C19        -2.3648    3.6538    0.0331 C.ar      1 <0>         0.1728
     25 N3         -1.2209    2.9603    0.0239 N.ar      1 <0>        -0.4991
     26 H1          8.3965    2.5081    0.8241 H         1 <0>         0.0591
     27 H2          8.3788    2.5177   -0.9557 H         1 <0>         0.0582
     28 H3          9.2158    3.8131   -0.0670 H         1 <0>         0.1036
     29 H4          6.9379    1.3028   -0.0583 H         1 <0>         0.1407
     30 H5          4.8292    0.0434   -0.0439 H         1 <0>         0.1391
     31 H6          3.8522    5.6261   -1.8356 H         1 <0>         0.0495
     32 H7          4.7394    7.0022   -1.1374 H         1 <0>         0.0934
     33 H8          5.6320    5.6385   -1.8529 H         1 <0>         0.0442
     34 H9          0.8937    4.7217    1.1296 H         1 <0>         0.0951
     35 H10         1.6565    3.2703    1.8225 H         1 <0>         0.0401
     36 H11         2.5320    4.8201    1.8186 H         1 <0>         0.0385
     37 H12         2.3403   -0.0309   -0.0205 H         1 <0>         0.1187
     38 H13         0.0021   -0.0041    0.0020 H         1 <0>         0.3940
     39 H14        -2.3884   -0.1711    0.0023 H         1 <0>         0.1359
     40 H15        -4.5421    1.0108    0.0296 H         1 <0>         0.1429
     41 H16        -5.7521    3.1925    0.0453 H         1 <0>         0.1272
     42 H17        -5.6773    5.6295    0.0585 H         1 <0>         0.1253
     43 H18        -3.5275    6.8201    0.0541 H         1 <0>         0.1283
     44 H19        -1.4221    5.5971    0.0382 H         1 <0>         0.1339
@<TRIPOS>BOND
     1    1    2 1
     2    1   26 1
     3    1   27 1
     4    1   28 1
     5    2    3 1
     6    3    8 ar
     7    3    4 ar
     8    4    5 ar
     9    4   29 1
    10    5    6 ar
    11    5   30 1
    12    6    7 ar
    13    6   13 1
    14    7    8 ar
    15    7   11 1
    16    8    9 1
    17    9   10 1
    18   10   31 1
    19   10   32 1
    20   10   33 1
    21   11   12 1
    22   12   34 1
    23   12   35 1
    24   12   36 1
    25   13   14 2
    26   13   37 1
    27   14   15 1
    28   15   16 1
    29   15   38 1
    30   16   25 ar
    31   16   17 ar
    32   17   18 ar
    33   17   39 1
    34   18   19 ar
    35   18   40 1
    36   19   24 ar
    37   19   20 ar
    38   20   21 ar
    39   20   41 1
    40   21   22 ar
    41   21   42 1
    42   22   23 ar
    43   22   43 1
    44   23   24 ar
    45   23   44 1
    46   24   25 ar
@<TRIPOS>MOLECULE
ZINC31843493
   45    47     0     0     0
SMALL
USER_CHARGES
2-tert-butyl-5-[[5-(4-ethylphenyl)-4H-1,2,4-triazol-3-yl]sulfanylmethyl]-1,3,4-oxadiazole
@<TRIPOS>ATOM
      1 C1         13.6993   -1.1701   -4.2937 C.3       1 <0>        -0.1494
      2 C2         13.2808    0.2858   -4.0786 C.3       1 <0>        -0.0901
      3 C3         11.9036    0.3277   -3.4682 C.ar      1 <0>        -0.0649
      4 C4         11.7597    0.3243   -2.0922 C.ar      1 <0>        -0.1223
      5 C5         10.5018    0.3621   -1.5270 C.ar      1 <0>        -0.0798
      6 C6          9.3728    0.4038   -2.3467 C.ar      1 <0>        -0.0185
      7 C7          9.5248    0.4015   -3.7341 C.ar      1 <0>        -0.0738
      8 C8         10.7885    0.3690   -4.2864 C.ar      1 <0>        -0.1217
      9 C9          8.0217    0.4438   -1.7479 C.2       1 <0>         0.2453
     10 N1          6.8263    0.4774   -2.4284 N.2       1 <0>        -0.4692
     11 C10         5.8561    0.5064   -1.4678 C.2       1 <0>         0.1780
     12 N2          6.4621    0.4872   -0.3015 N.pl3     1 <0>        -0.3913
     13 N3          7.7361    0.4540   -0.4667 N.2       1 <0>        -0.3147
     14 S1          4.1162    0.5596   -1.7408 S.3       1 <0>         0.0917
     15 C11         3.5295    0.5676   -0.0286 C.3       1 <0>        -0.0559
     16 C12         2.0232    0.6123   -0.0140 C.2       1 <0>         0.1562
     17 N4          1.2215   -0.4145   -0.0118 N.2       1 <0>        -0.2489
     18 N5          0.0021   -0.0041    0.0020 N.2       1 <0>        -0.2795
     19 C13        -0.0156    1.2985    0.0092 C.2       1 <0>         0.1954
     20 O1          1.2607    1.7185   -0.0007 O.3       1 <0>        -0.2114
     21 C14        -1.2424    2.1737    0.0200 C.3       1 <0>         0.0300
     22 C15        -2.0699    1.8764    1.2721 C.3       1 <0>        -0.1453
     23 C16        -0.8198    3.6442    0.0253 C.3       1 <0>        -0.1530
     24 C17        -2.0829    1.8891   -1.2263 C.3       1 <0>        -0.1460
     25 H1         14.7045   -1.2006   -4.7393 H         1 <0>         0.0599
     26 H2         12.9836   -1.6613   -4.9695 H         1 <0>         0.0572
     27 H3         13.7105   -1.6950   -3.3271 H         1 <0>         0.0568
     28 H4         13.9965    0.7770   -3.4029 H         1 <0>         0.0743
     29 H5         13.2696    0.8108   -5.0451 H         1 <0>         0.0747
     30 H6         12.6341    0.2916   -1.4591 H         1 <0>         0.1275
     31 H7         10.3907    0.3590   -0.4527 H         1 <0>         0.1306
     32 H8          8.6551    0.4297   -4.3739 H         1 <0>         0.1339
     33 H9         10.9078    0.3710   -5.3598 H         1 <0>         0.1281
     34 H10         3.9276    1.4515    0.4913 H         1 <0>         0.1287
     35 H11         3.8743   -0.3440    0.4814 H         1 <0>         0.1415
     36 H12        -2.9654    2.5152    1.2800 H         1 <0>         0.0818
     37 H13        -1.4655    2.0811    2.1681 H         1 <0>         0.0618
     38 H14        -2.3737    0.8192    1.2683 H         1 <0>         0.0742
     39 H15        -1.7153    4.2830    0.0332 H         1 <0>         0.0803
     40 H16        -0.2248    3.8579   -0.8749 H         1 <0>         0.0666
     41 H17        -0.2155    3.8488    0.9214 H         1 <0>         0.0650
     42 H18        -2.9783    2.5279   -1.2184 H         1 <0>         0.0820
     43 H19        -2.3867    0.8319   -1.2301 H         1 <0>         0.0743
     44 H20        -1.4879    2.1029   -2.1265 H         1 <0>         0.0632
     45 H21         6.0392    0.4957    0.7139 H         1 <0>         0.4766
@<TRIPOS>BOND
     1    1    2 1
     2    1   25 1
     3    1   26 1
     4    1   27 1
     5    2    3 1
     6    2   28 1
     7    2   29 1
     8    3    8 ar
     9    3    4 ar
    10    4    5 ar
    11    4   30 1
    12    5    6 ar
    13    5   31 1
    14    6    7 ar
    15    6    9 1
    16    7    8 ar
    17    7   32 1
    18    8   33 1
    19    9   10 1
    20    9   13 2
    21   10   11 2
    22   11   14 1
    23   11   12 1
    24   12   13 1
    25   12   45 1
    26   14   15 1
    27   15   16 1
    28   15   34 1
    29   15   35 1
    30   16   20 1
    31   16   17 2
    32   17   18 1
    33   18   19 2
    34   19   20 1
    35   19   21 1
    36   21   22 1
    37   21   23 1
    38   21   24 1
    39   22   36 1
    40   22   37 1
    41   22   38 1
    42   23   39 1
    43   23   40 1
    44   23   41 1
    45   24   42 1
    46   24   43 1
    47   24   44 1
@<TRIPOS>MOLECULE
ZINC11160938
   42    43     0     0     0
SMALL
USER_CHARGES

@<TRIPOS>ATOM
      1 C1          1.0880   -1.1484   -0.0423 C.3       1 <0>        -0.1846
      2 C2          0.0837    0.0012    0.0613 C.3       1 <0>         0.1201
      3 C3          0.3742    1.0321   -1.0312 C.3       1 <0>        -0.1841
      4 N1         -1.2748   -0.5203   -0.1080 N.am      1 <0>        -0.5394
      5 C4         -1.5987   -1.2734   -1.2420 C.ar      1 <0>         0.1481
      6 C5         -0.6815   -1.4030   -2.2766 C.ar      1 <0>        -0.1689
      7 C6         -1.0041   -2.1475   -3.3943 C.ar      1 <0>        -0.1000
      8 C7         -2.2390   -2.7635   -3.4837 C.ar      1 <0>        -0.1404
      9 C8         -3.1545   -2.6363   -2.4552 C.ar      1 <0>        -0.0979
     10 C9         -2.8360   -1.8976   -1.3326 C.ar      1 <0>        -0.1659
     11 C10        -2.2125   -0.2747    0.8283 C.2       1 <0>         0.5112
     12 O1         -3.3107   -0.7809    0.7342 O.2       1 <0>        -0.5053
     13 C11        -1.8966    0.6289    1.9922 C.3       1 <0>         0.1029
     14 N2         -3.0293    0.6427    2.9212 N.pl3     1 <0>        -0.7261
     15 C12        -2.9696    1.4154    4.0850 C.ar      1 <0>         0.2148
     16 C13        -1.8392    2.1747    4.3585 C.ar      1 <0>        -0.1239
     17 C14        -1.7823    2.9371    5.5086 C.ar      1 <0>        -0.1012
     18 C15        -2.8514    2.9449    6.3889 C.ar      1 <0>         0.1115
     19 C16        -3.9789    2.1885    6.1186 C.ar      1 <0>        -0.0357
     20 C17        -4.0426    1.4293    4.9663 C.ar      1 <0>        -0.1076
     21 N3         -5.1195    2.1982    7.0618 N.pl3     1 <0>         0.0320
     22 O2         -6.1044    1.5378    6.8261 O.2       1 <0>        -0.1514
     23 O3         -5.0662    2.8664    8.0679 O.3       1 <0>        -0.1397
     24 F1         -2.7936    3.6915    7.5135 F         1 <0>        -0.1073
     25 H1          2.1017   -0.7488   -0.0160 H         1 <0>         0.0790
     26 H2          0.9452   -1.8321    0.7945 H         1 <0>         0.0640
     27 H3          0.9325   -1.6833   -0.9792 H         1 <0>         0.0822
     28 H4          0.1721    0.4738    1.0396 H         1 <0>         0.1005
     29 H5          0.1814    0.5898   -2.0086 H         1 <0>         0.0794
     30 H6         -0.2699    1.9004   -0.8919 H         1 <0>         0.0639
     31 H7          1.4179    1.3406   -0.9715 H         1 <0>         0.0790
     32 H8          0.2829   -0.9219   -2.2075 H         1 <0>         0.1432
     33 H9         -0.2914   -2.2484   -4.1994 H         1 <0>         0.1260
     34 H10        -2.4890   -3.3448   -4.3589 H         1 <0>         0.1220
     35 H11        -4.1181   -3.1186   -2.5281 H         1 <0>         0.1252
     36 H12        -3.5499   -1.8021   -0.5278 H         1 <0>         0.1795
     37 H13        -1.0089    0.2614    2.5071 H         1 <0>         0.0998
     38 H14        -1.7130    1.6397    1.6281 H         1 <0>         0.1026
     39 H15        -3.8207    0.1159    2.7289 H         1 <0>         0.4194
     40 H16        -1.0051    2.1686    3.6725 H         1 <0>         0.1493
     41 H17        -0.9034    3.5273    5.7219 H         1 <0>         0.1617
     42 H18        -4.9244    0.8431    4.7533 H         1 <0>         0.1624
@<TRIPOS>BOND
     1    1    2 1
     2    1   25 1
     3    1   26 1
     4    1   27 1
     5    2    3 1
     6    2    4 1
     7    2   28 1
     8    3   29 1
     9    3   30 1
    10    3   31 1
    11    4    5 1
    12    4   11 am
    13    5   10 ar
    14    5    6 ar
    15    6    7 ar
    16    6   32 1
    17    7    8 ar
    18    7   33 1
    19    8    9 ar
    20    8   34 1
    21    9   10 ar
    22    9   35 1
    23   10   36 1
    24   11   12 2
    25   11   13 1
    26   13   14 1
    27   13   37 1
    28   13   38 1
    29   14   15 1
    30   14   39 1
    31   15   20 ar
    32   15   16 ar
    33   16   17 ar
    34   16   40 1
    35   17   18 ar
    36   17   41 1
    37   18   19 ar
    38   18   24 1
    39   19   20 ar
    40   19   21 1
    41   20   42 1
    42   21   22 2
    43   21   23 1
@<TRIPOS>MOLECULE
ZINC63764605
   44    45     0     0     0
SMALL
USER_CHARGES

@<TRIPOS>ATOM
      1 C1         -0.0184    1.5028    0.0103 C.3       1 <0>        -0.1189
      2 C2          0.0021   -0.0041    0.0020 C.ar      1 <0>        -0.0655
      3 C3          0.0057   -0.6887   -1.1989 C.ar      1 <0>        -0.1307
      4 C4          0.0245   -2.0709   -1.2065 C.ar      1 <0>        -0.0591
      5 C5          0.0400   -2.7685   -0.0132 C.ar      1 <0>        -0.1160
      6 C6          0.0373   -2.0839    1.1877 C.ar      1 <0>        -0.0526
      7 C7          0.0229   -0.7016    1.1953 C.ar      1 <0>        -0.1298
      8 C8          0.0538   -2.8444    2.4886 C.3       1 <0>        -0.1252
      9 C9          0.0595   -4.2753   -0.0215 C.3       1 <0>         0.1490
     10 N1          1.4468   -4.7457   -0.0317 N.pl3     1 <0>        -1.1091
     11 S1          1.7882   -6.3255    0.3290 S.o2      1 <0>         2.6084
     12 O1          3.2038   -6.4183    0.2479 O.2       1 <0>        -0.9431
     13 O2          1.1152   -6.5708    1.5563 O.2       1 <0>        -0.9394
     14 C10         1.0217   -7.2847   -1.0063 C.3       1 <0>        -0.6021
     15 C11         1.2721   -8.7531   -0.7777 C.ar      1 <0>        -0.0427
     16 C12         2.4024   -9.3513   -1.3025 C.ar      1 <0>        -0.1048
     17 C13         2.6321  -10.6983   -1.0928 C.ar      1 <0>        -0.0498
     18 C14         1.7317  -11.4468   -0.3580 C.ar      1 <0>        -0.0423
     19 C15         0.6019  -10.8483    0.1675 C.ar      1 <0>        -0.0497
     20 C16         0.3743   -9.5004   -0.0386 C.ar      1 <0>        -0.1045
     21 N2          1.9772  -12.8892   -0.1343 N.pl3     1 <0>         0.0304
     22 O3          2.9651  -13.4127   -0.5942 O.2       1 <0>        -0.1514
     23 O4          1.1897  -13.5439    0.5083 O.3       1 <0>        -0.1514
     24 C17         0.0274   -2.8172   -2.5157 C.3       1 <0>        -0.1225
     25 H1          1.0042    1.8801    0.0026 H         1 <0>         0.0730
     26 H2         -0.5455    1.8639   -0.8728 H         1 <0>         0.0681
     27 H3         -0.5286    1.8543    0.9071 H         1 <0>         0.0683
     28 H4         -0.0064   -0.1436   -2.1312 H         1 <0>         0.1236
     29 H5          0.0245   -0.1667    2.1335 H         1 <0>         0.1243
     30 H6          1.0853   -3.0144    2.7970 H         1 <0>         0.0747
     31 H7         -0.4637   -2.2661    3.2541 H         1 <0>         0.0696
     32 H8         -0.4484   -3.8026    2.3557 H         1 <0>         0.0743
     33 H9         -0.4447   -4.6501    0.8693 H         1 <0>         0.0932
     34 H10        -0.4546   -4.6404   -0.9106 H         1 <0>         0.0765
     35 H11         2.1655   -4.1319   -0.2498 H         1 <0>         0.4227
     36 H12        -0.0519   -7.0968   -1.0186 H         1 <0>         0.1508
     37 H13         1.4536   -6.9869   -1.9618 H         1 <0>         0.1534
     38 H14         3.1058   -8.7665   -1.8766 H         1 <0>         0.1565
     39 H15         3.5148  -11.1658   -1.5034 H         1 <0>         0.1620
     40 H16        -0.1018  -11.4332    0.7412 H         1 <0>         0.1621
     41 H17        -0.5065   -9.0320    0.3751 H         1 <0>         0.1566
     42 H18         1.0557   -2.9832   -2.8370 H         1 <0>         0.0738
     43 H19        -0.4727   -3.7772   -2.3878 H         1 <0>         0.0696
     44 H20        -0.4985   -2.2310   -3.2693 H         1 <0>         0.0696
@<TRIPOS>BOND
     1    1    2 1
     2    1   25 1
     3    1   26 1
     4    1   27 1
     5    2    7 ar
     6    2    3 ar
     7    3    4 ar
     8    3   28 1
     9    4    5 ar
    10    4   24 1
    11    5    6 ar
    12    5    9 1
    13    6    7 ar
    14    6    8 1
    15    7   29 1
    16    8   30 1
    17    8   31 1
    18    8   32 1
    19    9   10 1
    20    9   33 1
    21    9   34 1
    22   10   11 1
    23   10   35 1
    24   11   12 2
    25   11   13 2
    26   11   14 1
    27   14   15 1
    28   14   36 1
    29   14   37 1
    30   15   20 ar
    31   15   16 ar
    32   16   17 ar
    33   16   38 1
    34   17   18 ar
    35   17   39 1
    36   18   19 ar
    37   18   21 1
    38   19   20 ar
    39   19   40 1
    40   20   41 1
    41   21   22 2
    42   21   23 1
    43   24   42 1
    44   24   43 1
    45   24   44 1
@<TRIPOS>MOLECULE
ZINC06861411
   35    36     0     0     0
SMALL
USER_CHARGES
5-[(4-allyloxyphenyl)methyleneaminoamino]-2-methyl-oxazole-4-carbonitrile
@<TRIPOS>ATOM
      1 C1         -1.6606    4.6578    0.0423 C.3       1 <0>        -0.0551
      2 C2         -0.7386    3.4659    0.0269 C.2       1 <0>         0.1922
      3 N1         -1.1216    2.2257    0.0187 N.2       1 <0>        -0.4212
      4 C3         -0.0173    1.4278    0.0099 C.2       1 <0>        -0.0375
      5 C4          1.0830    2.2693    0.0039 C.2       1 <0>         0.3492
      6 O1          0.6026    3.5272    0.0148 O.3       1 <0>        -0.1924
      7 N2          2.4084    1.8932   -0.0108 N.pl3     1 <0>        -0.5330
      8 N3          3.4136    2.8692   -0.0151 N.2       1 <0>        -0.2518
      9 C5          4.6629    2.5146   -0.0289 C.2       1 <0>         0.1358
     10 C6          5.7203    3.5414   -0.0335 C.ar      1 <0>        -0.1040
     11 C7          5.3810    4.8971   -0.0289 C.ar      1 <0>        -0.0322
     12 C8          6.3732    5.8535   -0.0283 C.ar      1 <0>        -0.2163
     13 C9          7.7086    5.4720   -0.0431 C.ar      1 <0>         0.1539
     14 C10         8.0506    4.1259   -0.0531 C.ar      1 <0>        -0.1561
     15 C11         7.0654    3.1623   -0.0484 C.ar      1 <0>        -0.0424
     16 O2          8.6833    6.4184   -0.0482 O.3       1 <0>        -0.3080
     17 C12         8.2618    7.7838   -0.0374 C.3       1 <0>         0.0854
     18 C13         9.4712    8.6829   -0.0451 C.2       1 <0>        -0.1622
     19 C14         9.5103    9.7214   -0.8427 C.2       1 <0>        -0.1653
     20 C15         0.0021   -0.0041    0.0020 C.1       1 <0>         0.2981
     21 N4          0.0175   -1.1399   -0.0042 N.1       1 <0>        -0.4014
     22 H1         -1.8926    4.9510   -0.9816 H         1 <0>         0.0960
     23 H2         -2.5821    4.3976    0.5633 H         1 <0>         0.1060
     24 H3         -1.1743    5.4868    0.5563 H         1 <0>         0.0920
     25 H4          2.6456    0.9527   -0.0181 H         1 <0>         0.4176
     26 H5          4.9269    1.4674   -0.0371 H         1 <0>         0.1269
     27 H6          4.3428    5.1948   -0.0215 H         1 <0>         0.1374
     28 H7          6.1120    6.9014   -0.0206 H         1 <0>         0.1334
     29 H8          9.0903    3.8339   -0.0649 H         1 <0>         0.1387
     30 H9          7.3323    2.1159   -0.0565 H         1 <0>         0.1383
     31 H10         7.6548    7.9838   -0.9203 H         1 <0>         0.0707
     32 H11         7.6726    7.9751    0.8595 H         1 <0>         0.0754
     33 H12        10.3057    8.4711    0.6069 H         1 <0>         0.1213
     34 H13         8.6757    9.9332   -1.4947 H         1 <0>         0.1005
     35 H14        10.3770   10.3658   -0.8482 H         1 <0>         0.1100
@<TRIPOS>BOND
     1    1    2 1
     2    1   22 1
     3    1   23 1
     4    1   24 1
     5    2    6 1
     6    2    3 2
     7    3    4 1
     8    4    5 2
     9    4   20 1
    10    5    6 1
    11    5    7 1
    12    7    8 1
    13    7   25 1
    14    8    9 2
    15    9   10 1
    16    9   26 1
    17   10   15 ar
    18   10   11 ar
    19   11   12 ar
    20   11   27 1
    21   12   13 ar
    22   12   28 1
    23   13   14 ar
    24   13   16 1
    25   14   15 ar
    26   14   29 1
    27   15   30 1
    28   16   17 1
    29   17   18 1
    30   17   31 1
    31   17   32 1
    32   18   19 2
    33   18   33 1
    34   19   34 1
    35   19   35 1
    36   20   21 3
@<TRIPOS>MOLECULE
ZINC35417172
   44    45     0     0     0
SMALL
USER_CHARGES

@<TRIPOS>ATOM
      1 C1          2.1242    1.2660    0.4536 C.3       1 <0>        -0.1558
      2 C2          1.3762   -0.0682    0.4894 C.3       1 <0>        -0.1196
      3 C3          0.9152   -0.4325   -0.9233 C.3       1 <0>         0.0720
      4 H1          0.3257    0.3864   -1.3356 H         1 <0>         0.0801
      5 C4          0.0600   -1.7000   -0.8697 C.3       1 <0>        -0.1416
      6 N1          2.0850   -0.6682   -1.7731 N.2       1 <0>        -0.6615
      7 C5          2.5535    0.2909   -2.5146 C.2       1 <0>         0.5856
      8 N2          3.9155    0.4372   -2.6734 N.am      1 <0>        -0.6322
      9 C6          4.4013    1.4318   -3.4423 C.2       1 <0>         0.5639
     10 O1          3.6389    2.2000   -3.9958 O.2       1 <0>        -0.4708
     11 C7          5.8585    1.5883   -3.6122 C.ar      1 <0>        -0.1328
     12 C8          6.7364    0.7029   -2.9814 C.ar      1 <0>        -0.0678
     13 C9          8.0966    0.8506   -3.1413 C.ar      1 <0>        -0.1067
     14 C10         8.6005    1.8778   -3.9283 C.ar      1 <0>         0.0690
     15 C11         7.7291    2.7656   -4.5609 C.ar      1 <0>         0.0255
     16 C12         6.3642    2.6190   -4.4091 C.ar      1 <0>        -0.0354
     17 O2          8.4676    3.6724   -5.2656 O.3       1 <0>        -0.3026
     18 C13         9.8007    3.5809   -4.7296 C.3       1 <0>         0.2117
     19 O3          9.8807    2.2300   -4.2385 O.3       1 <0>        -0.3024
     20 O4          1.7062    1.1445   -3.1297 O.3       1 <0>        -0.3280
     21 C14         0.3139    0.8269   -3.0775 C.3       1 <0>         0.0524
     22 C15        -0.4332    1.9307   -2.3263 C.3       1 <0>        -0.1693
     23 C16        -0.2373    0.7151   -4.5004 C.3       1 <0>        -0.1589
     24 H2          3.0196    1.1643   -0.1596 H         1 <0>         0.0517
     25 H3          1.4778    2.0337    0.0281 H         1 <0>         0.0496
     26 H4          2.4080    1.5507    1.4668 H         1 <0>         0.0575
     27 H5          2.0393   -0.8464    0.8672 H         1 <0>         0.0711
     28 H6          0.5087    0.0191    1.1435 H         1 <0>         0.0698
     29 H7         -0.8104   -1.5246   -0.2374 H         1 <0>         0.0616
     30 H8         -0.2684   -1.9595   -1.8762 H         1 <0>         0.0527
     31 H9          0.6495   -2.5189   -0.4574 H         1 <0>         0.0661
     32 H10         6.3485   -0.0971   -2.3682 H         1 <0>         0.1448
     33 H11         8.7735    0.1654   -2.6527 H         1 <0>         0.1480
     34 H12         5.6888    3.3027   -4.9019 H         1 <0>         0.1524
     35 H13        10.5405    3.7481   -5.5125 H         1 <0>         0.1379
     36 H14         9.9358    4.2930   -3.9155 H         1 <0>         0.0908
     37 H15         0.1770   -0.1222   -2.5592 H         1 <0>         0.1116
     38 H16        -1.4733    1.6356   -2.1872 H         1 <0>         0.0794
     39 H17         0.0330    2.0880   -1.3537 H         1 <0>         0.0681
     40 H18        -0.3917    2.8548   -2.9029 H         1 <0>         0.0731
     41 H19         0.2950   -0.0713   -5.0355 H         1 <0>         0.0608
     42 H20        -1.2993    0.4728   -4.4606 H         1 <0>         0.0772
     43 H21        -0.1004    1.6641   -5.0187 H         1 <0>         0.0689
     44 H22         4.5239   -0.1758   -2.2317 H         1 <0>         0.4319
@<TRIPOS>BOND
     1    1    2 1
     2    1   24 1
     3    1   25 1
     4    1   26 1
     5    2    3 1
     6    2   27 1
     7    2   28 1
     8    3    4 1
     9    3    5 1
    10    3    6 1
    11    5   29 1
    12    5   30 1
    13    5   31 1
    14    6    7 2
    15    7    8 1
    16    7   20 1
    17    8    9 am
    18    8   44 1
    19    9   10 2
    20    9   11 1
    21   11   16 ar
    22   11   12 ar
    23   12   13 ar
    24   12   32 1
    25   13   14 ar
    26   13   33 1
    27   14   19 1
    28   14   15 ar
    29   15   16 ar
    30   15   17 1
    31   16   34 1
    32   17   18 1
    33   18   19 1
    34   18   35 1
    35   18   36 1
    36   20   21 1
    37   21   22 1
    38   21   23 1
    39   21   37 1
    40   22   38 1
    41   22   39 1
    42   22   40 1
    43   23   41 1
    44   23   42 1
    45   23   43 1
@<TRIPOS>MOLECULE
ZINC48820279
   42    42     0     0     0
SMALL
USER_CHARGES

@<TRIPOS>ATOM
      1 C1         -0.0187    1.5258    0.0104 C.3       1 <0>        -0.1752
      2 C2          0.0021   -0.0041    0.0020 C.3       1 <0>         0.1463
      3 H1          0.5123   -0.3556   -0.8948 H         1 <0>         0.1177
      4 C3          0.7309   -0.5033    1.2229 C.2       1 <0>         0.5151
      5 O1          0.1587   -1.2128    2.0229 O.2       1 <0>        -0.5260
      6 N1          2.0187   -0.1613    1.4257 N.am      1 <0>        -0.6058
      7 C4          2.7100    0.6957    0.4594 C.3       1 <0>         0.0677
      8 C5          2.7273   -0.6466    2.6126 C.3       1 <0>         0.1851
      9 C6          3.3893   -1.9636    2.2989 C.2       1 <0>        -0.2038
     10 C7          2.8218   -3.2494    2.4520 C.2       1 <0>        -0.1930
     11 C8          3.7528   -4.1360    2.0563 C.2       1 <0>        -0.0439
     12 O2          4.8479   -3.4590    1.6739 O.3       1 <0>        -0.1762
     13 C9          4.6314   -2.1410    1.8141 C.2       1 <0>        -0.0259
     14 N2         -1.3723   -0.5112    0.0124 N.am      1 <0>        -0.6960
     15 C10        -2.0508   -0.6427   -1.1446 C.2       1 <0>         0.6568
     16 O3         -1.5226   -0.3408   -2.1964 O.2       1 <0>        -0.5662
     17 O4         -3.3139   -1.1087   -1.1351 O.3       1 <0>        -0.3553
     18 C11        -3.9731   -1.2224   -2.3979 C.3       1 <0>         0.1343
     19 C12        -3.1888   -2.1789   -3.2983 C.3       1 <0>        -0.1865
     20 C13        -5.3881   -1.7649   -2.1876 C.3       1 <0>        -0.1413
     21 C14        -4.0481    0.1550   -3.0598 C.3       1 <0>        -0.1859
     22 H2          1.0039    1.9031    0.0027 H         1 <0>         0.0854
     23 H3         -0.5459    1.8868   -0.8726 H         1 <0>         0.0773
     24 H4         -0.5289    1.8773    0.9072 H         1 <0>         0.0663
     25 H5          2.5783    1.7405    0.7409 H         1 <0>         0.0689
     26 H6          3.7724    0.4523    0.4527 H         1 <0>         0.0755
     27 H7          2.2935    0.5320   -0.5345 H         1 <0>         0.0777
     28 H8          3.4849    0.0801    2.9060 H         1 <0>         0.0904
     29 H9          2.0181   -0.7818    3.4292 H         1 <0>         0.0964
     30 H10         1.8310   -3.4764    2.8171 H         1 <0>         0.1497
     31 H11         3.6391   -5.2099    2.0479 H         1 <0>         0.2025
     32 H12         5.3359   -1.3567    1.5798 H         1 <0>         0.2007
     33 H13        -1.7940   -0.7522    0.8520 H         1 <0>         0.4157
     34 H14        -3.1354   -3.1602   -2.8267 H         1 <0>         0.0595
     35 H15        -3.6916   -2.2656   -4.2615 H         1 <0>         0.0710
     36 H16        -2.1807   -1.7924   -3.4481 H         1 <0>         0.0872
     37 H17        -5.9469   -1.0834   -1.5461 H         1 <0>         0.0671
     38 H18        -5.8909   -1.8515   -3.1508 H         1 <0>         0.0815
     39 H19        -5.3347   -2.7461   -1.7160 H         1 <0>         0.0672
     40 H20        -3.0400    0.5415   -3.2096 H         1 <0>         0.0875
     41 H21        -4.5509    0.0683   -4.0230 H         1 <0>         0.0709
     42 H22        -4.6068    0.8365   -2.4183 H         1 <0>         0.0596
@<TRIPOS>BOND
     1    1    2 1
     2    1   22 1
     3    1   23 1
     4    1   24 1
     5    2    3 1
     6    2    4 1
     7    2   14 1
     8    4    5 2
     9    4    6 am
    10    6    7 1
    11    6    8 1
    12    7   25 1
    13    7   26 1
    14    7   27 1
    15    8    9 1
    16    8   28 1
    17    8   29 1
    18    9   13 2
    19    9   10 1
    20   10   11 2
    21   10   30 1
    22   11   12 1
    23   11   31 1
    24   12   13 1
    25   13   32 1
    26   14   15 am
    27   14   33 1
    28   15   16 2
    29   15   17 1
    30   17   18 1
    31   18   19 1
    32   18   20 1
    33   18   21 1
    34   19   34 1
    35   19   35 1
    36   19   36 1
    37   20   37 1
    38   20   38 1
    39   20   39 1
    40   21   40 1
    41   21   41 1
    42   21   42 1
@<TRIPOS>MOLECULE
ZINC50748252
   44    44     0     0     0
SMALL
USER_CHARGES

@<TRIPOS>ATOM
      1 C1         -0.9640   -3.6043   -4.1559 C.3       1 <0>        -0.1515
      2 C2          0.1636   -2.9055   -3.3937 C.3       1 <0>        -0.1386
      3 C3         -0.2903   -2.6194   -1.9608 C.3       1 <0>         0.0956
      4 N1          0.7894   -1.9503   -1.2309 N.am      1 <0>        -0.5994
      5 C4          0.8790   -0.4880   -1.2338 C.3       1 <0>         0.1435
      6 C5          0.6823    0.0377    0.1895 C.3       1 <0>        -0.1701
      7 C6          2.2553   -0.0624   -1.7490 C.3       1 <0>        -0.1704
      8 C7          1.7003   -2.6799   -0.5569 C.2       1 <0>         0.5729
      9 O1          2.5447   -2.1244    0.1192 O.2       1 <0>        -0.5229
     10 C8          1.6730   -4.1517   -0.6391 C.ar      1 <0>        -0.2103
     11 C9          0.5357   -4.8573   -0.2374 C.ar      1 <0>         0.0241
     12 C10         0.5165   -6.2324   -0.3167 C.ar      1 <0>        -0.1151
     13 C11         1.6203   -6.9220   -0.7935 C.ar      1 <0>         0.0115
     14 C12         2.7508   -6.2400   -1.1935 C.ar      1 <0>        -0.1981
     15 C13         2.7869   -4.8525   -1.1269 C.ar      1 <0>         0.3058
     16 N2          3.9212   -4.1632   -1.5353 N.pl3     1 <0>        -0.7144
     17 C14         5.0392   -4.8881   -2.1443 C.3       1 <0>         0.1065
     18 C15         6.1533   -3.9016   -2.5000 C.3       1 <0>        -0.1680
     19 N3         -0.6892   -6.9776    0.1100 N.pl3     1 <0>         0.0457
     20 O2         -1.6536   -6.3794    0.5267 O.2       1 <0>        -0.1723
     21 O3         -0.7095   -8.1845    0.0417 O.3       1 <0>        -0.1666
     22 H1         -1.2115   -4.5424   -3.6591 H         1 <0>         0.0553
     23 H2         -1.8432   -2.9603   -4.1750 H         1 <0>         0.0593
     24 H3         -0.6407   -3.8081   -5.1767 H         1 <0>         0.0596
     25 H4          1.0428   -3.5495   -3.3746 H         1 <0>         0.0614
     26 H5          0.4111   -1.9674   -3.8905 H         1 <0>         0.0673
     27 H6         -1.1695   -1.9754   -1.9799 H         1 <0>         0.0871
     28 H7         -0.5378   -3.5575   -1.4640 H         1 <0>         0.0834
     29 H8          0.1053   -0.0779   -1.8828 H         1 <0>         0.0894
     30 H9          1.5077   -0.2970    0.8178 H         1 <0>         0.0764
     31 H10         0.6562    1.1273    0.1740 H         1 <0>         0.0664
     32 H11        -0.2571   -0.3425    0.5907 H         1 <0>         0.0561
     33 H12         2.4359   -0.5186   -2.7224 H         1 <0>         0.0533
     34 H13         2.2877    1.0229   -1.8448 H         1 <0>         0.0677
     35 H14         3.0228   -0.3883   -1.0470 H         1 <0>         0.0773
     36 H15        -0.3271   -4.3252    0.1352 H         1 <0>         0.1557
     37 H16         1.5954   -8.0001   -0.8517 H         1 <0>         0.1568
     38 H17         3.6068   -6.7847   -1.5635 H         1 <0>         0.1512
     39 H18         3.9732   -3.2018   -1.4173 H         1 <0>         0.4126
     40 H19         5.4198   -5.6274   -1.4396 H         1 <0>         0.0729
     41 H20         4.6966   -5.3908   -3.0488 H         1 <0>         0.0724
     42 H21         5.7727   -3.1623   -3.2046 H         1 <0>         0.0635
     43 H22         6.4959   -3.3989   -1.5955 H         1 <0>         0.0660
     44 H23         6.9851   -4.4409   -2.9531 H         1 <0>         0.0808
@<TRIPOS>BOND
     1    1    2 1
     2    1   22 1
     3    1   23 1
     4    1   24 1
     5    2    3 1
     6    2   25 1
     7    2   26 1
     8    3    4 1
     9    3   27 1
    10    3   28 1
    11    4    5 1
    12    4    8 am
    13    5    6 1
    14    5    7 1
    15    5   29 1
    16    6   30 1
    17    6   31 1
    18    6   32 1
    19    7   33 1
    20    7   34 1
    21    7   35 1
    22    8    9 2
    23    8   10 1
    24   10   15 ar
    25   10   11 ar
    26   11   12 ar
    27   11   36 1
    28   12   13 ar
    29   12   19 1
    30   13   14 ar
    31   13   37 1
    32   14   15 ar
    33   14   38 1
    34   15   16 1
    35   16   17 1
    36   16   39 1
    37   17   18 1
    38   17   40 1
    39   17   41 1
    40   18   42 1
    41   18   43 1
    42   18   44 1
    43   19   20 2
    44   19   21 1
@<TRIPOS>MOLECULE
ZINC64974900
   46    48     0     0     0
SMALL
USER_CHARGES

@<TRIPOS>ATOM
      1 C1          0.3531    1.1845    1.4661 C.3       1 <0>        -0.1690
      2 C2          0.1772   -0.3343    1.4088 C.3       1 <0>         0.1075
      3 N1         -0.9745   -0.6610    0.5643 N.pl3     1 <0>        -0.7197
      4 C3         -1.3332   -1.9890    0.3611 C.ar      1 <0>         0.3002
      5 C4         -0.5500   -3.0095    0.8940 C.ar      1 <0>        -0.2047
      6 C5         -0.9026   -4.3245    0.6951 C.ar      1 <0>        -0.0020
      7 C6         -2.0486   -4.6355   -0.0430 C.ar      1 <0>        -0.1918
      8 C7         -2.8326   -3.6088   -0.5766 C.ar      1 <0>         0.0462
      9 C8         -2.4776   -2.2953   -0.3697 C.ar      1 <0>        -0.1335
     10 N2         -3.3104   -1.2073   -0.9297 N.pl3     1 <0>         0.0432
     11 O1         -4.5153   -1.3069   -0.9292 O.2       1 <0>        -0.1389
     12 O2         -2.7858   -0.2190   -1.3876 O.3       1 <0>        -0.1809
     13 C9         -2.4291   -6.0444   -0.2585 C.2       1 <0>         0.5699
     14 O3         -3.6017   -6.3477   -0.3667 O.2       1 <0>        -0.5303
     15 N3         -1.4772   -6.9954   -0.3354 N.am      1 <0>        -0.5987
     16 C10        -0.0618   -6.6177   -0.3221 C.3       1 <0>         0.0672
     17 C11        -1.8579   -8.4067   -0.4324 C.3       1 <0>         0.2025
     18 C12        -1.2590   -9.0102   -1.7045 C.3       1 <0>        -0.1678
     19 C13        -2.2126   -9.3012   -2.8651 C.3       1 <0>        -0.1748
     20 C14        -1.6319  -10.4546   -2.0445 C.3       1 <0>        -0.1648
     21 C15        -1.3294   -9.1626    0.7883 C.3       1 <0>        -0.1640
     22 C16        -2.3235  -10.0217    1.5722 C.3       1 <0>        -0.1679
     23 C17        -1.8145   -8.7068    2.1660 C.3       1 <0>        -0.1724
     24 H1          1.2099    1.4275    2.0944 H         1 <0>         0.0814
     25 H2          0.5197    1.5691    0.4599 H         1 <0>         0.0681
     26 H3         -0.5450    1.6387    1.8847 H         1 <0>         0.0648
     27 H4          1.0752   -0.7886    0.9902 H         1 <0>         0.0741
     28 H5          0.0106   -0.7190    2.4150 H         1 <0>         0.0720
     29 H6         -1.4867    0.0491    0.1468 H         1 <0>         0.4153
     30 H7          0.3353   -2.7686    1.4638 H         1 <0>         0.1511
     31 H8         -0.2946   -5.1156    1.1084 H         1 <0>         0.1556
     32 H9         -3.7182   -3.8459   -1.1475 H         1 <0>         0.1554
     33 H10         0.3091   -6.6347    0.7027 H         1 <0>         0.0634
     34 H11         0.5083   -7.3233   -0.9265 H         1 <0>         0.0768
     35 H12         0.0504   -5.6142   -0.7325 H         1 <0>         0.0782
     36 H13        -2.9442   -8.4884   -0.4681 H         1 <0>         0.1046
     37 H14        -0.2505   -8.6791   -1.9522 H         1 <0>         0.1079
     38 H15        -3.2666   -9.0627   -2.7223 H         1 <0>         0.0965
     39 H16        -1.8316   -9.1614   -3.8767 H         1 <0>         0.0949
     40 H17        -0.8688  -11.0737   -2.5163 H         1 <0>         0.0967
     41 H18        -2.3038  -10.9749   -1.3619 H         1 <0>         0.0978
     42 H19        -0.3040   -9.5238    0.7100 H         1 <0>         0.1089
     43 H20        -3.3541  -10.0485    1.2181 H         1 <0>         0.0957
     44 H21        -1.9523  -10.9485    2.0095 H         1 <0>         0.0980
     45 H22        -1.1084   -8.7684    2.9940 H         1 <0>         0.0953
     46 H23        -2.5102   -7.8684    2.2026 H         1 <0>         0.0921
@<TRIPOS>BOND
     1    1    2 1
     2    1   24 1
     3    1   25 1
     4    1   26 1
     5    2    3 1
     6    2   27 1
     7    2   28 1
     8    3    4 1
     9    3   29 1
    10    4    9 ar
    11    4    5 ar
    12    5    6 ar
    13    5   30 1
    14    6    7 ar
    15    6   31 1
    16    7    8 ar
    17    7   13 1
    18    8    9 ar
    19    8   32 1
    20    9   10 1
    21   10   11 2
    22   10   12 1
    23   13   14 2
    24   13   15 am
    25   15   16 1
    26   15   17 1
    27   16   33 1
    28   16   34 1
    29   16   35 1
    30   17   18 1
    31   17   21 1
    32   17   36 1
    33   18   20 1
    34   18   19 1
    35   18   37 1
    36   19   20 1
    37   19   38 1
    38   19   39 1
    39   20   40 1
    40   20   41 1
    41   21   23 1
    42   21   22 1
    43   21   42 1
    44   22   23 1
    45   22   43 1
    46   22   44 1
    47   23   45 1
    48   23   46 1
@<TRIPOS>MOLECULE
ZINC04187743
   42    44     0     0     0
SMALL
USER_CHARGES
2-nitro-5-pyrrolidin-1-yl-N-(tetrahydrofuran-2-ylmethyl)aniline
@<TRIPOS>ATOM
      1 C1          1.2813   -0.6773    0.0448 C.ar      1 <0>        -0.1501
      2 C2          2.4326    0.0866    0.0635 C.ar      1 <0>        -0.0055
      3 C3          2.3516    1.4646    0.0140 C.ar      1 <0>        -0.1236
      4 C4          1.1110    2.0874   -0.0558 C.ar      1 <0>         0.2905
      5 C5         -0.0470    1.3233   -0.0743 C.ar      1 <0>        -0.2351
      6 C6          0.0378   -0.0611   -0.0239 C.ar      1 <0>         0.1812
      7 N1         -1.1254   -0.8339   -0.0418 N.pl3     1 <0>        -0.4874
      8 C7         -1.9634   -0.5623    1.1541 C.3       1 <0>         0.0378
      9 C8         -3.3673   -1.0558    0.7228 C.3       1 <0>        -0.1237
     10 C9         -3.4351   -0.6465   -0.7665 C.3       1 <0>        -0.1323
     11 C10        -1.9679   -0.4966   -1.2096 C.3       1 <0>         0.0352
     12 N2          1.0301    3.4808   -0.1068 N.pl3     1 <0>        -0.7216
     13 C11        -0.2765    4.1412   -0.0526 C.3       1 <0>         0.1221
     14 C12        -0.0851    5.6574   -0.1254 C.3       1 <0>         0.0637
     15 H1          0.4301    5.9219   -1.0488 H         1 <0>         0.0766
     16 C13        -1.4545    6.3618   -0.0691 C.3       1 <0>        -0.1481
     17 C14        -1.3570    7.2824    1.1717 C.3       1 <0>        -0.1556
     18 C15         0.1760    7.4189    1.3550 C.3       1 <0>         0.0449
     19 O1          0.6747    6.1091    1.0082 O.3       1 <0>        -0.3645
     20 N3          3.5874    2.2789    0.0342 N.pl3     1 <0>         0.0365
     21 O2          4.5802    1.8938   -0.5571 O.2       1 <0>        -0.1541
     22 O3          3.6116    3.3340    0.6421 O.3       1 <0>        -0.1751
     23 H2          1.3481   -1.7546    0.0841 H         1 <0>         0.1503
     24 H3          3.3978   -0.3949    0.1173 H         1 <0>         0.1509
     25 H4         -1.0121    1.8046   -0.1322 H         1 <0>         0.1402
     26 H5         -1.6035   -1.1290    2.0128 H         1 <0>         0.0904
     27 H6         -1.9822    0.5046    1.3764 H         1 <0>         0.0533
     28 H7         -4.1459   -0.5534    1.2967 H         1 <0>         0.0771
     29 H8         -3.4485   -2.1375    0.8296 H         1 <0>         0.0800
     30 H9         -3.9618    0.3016   -0.8747 H         1 <0>         0.0698
     31 H10        -3.9296   -1.4221   -1.3514 H         1 <0>         0.0782
     32 H11        -1.7772    0.5304   -1.5209 H         1 <0>         0.0533
     33 H12        -1.7536   -1.1794   -2.0317 H         1 <0>         0.0877
     34 H13         1.8390    4.0113   -0.1781 H         1 <0>         0.4162
     35 H14        -0.8856    3.8111   -0.8941 H         1 <0>         0.0771
     36 H15        -0.7760    3.8824    0.8810 H         1 <0>         0.0753
     37 H16        -1.6171    6.9525   -0.9706 H         1 <0>         0.0828
     38 H17        -2.2539    5.6320    0.0592 H         1 <0>         0.0814
     39 H18        -1.8129    8.2523    0.9732 H         1 <0>         0.0841
     40 H19        -1.8130    6.8112    2.0425 H         1 <0>         0.0791
     41 H20         0.5777    8.1739    0.6792 H         1 <0>         0.0638
     42 H21         0.4187    7.6632    2.3892 H         1 <0>         0.0970
@<TRIPOS>BOND
     1    1    6 ar
     2    1    2 ar
     3    1   23 1
     4    2    3 ar
     5    2   24 1
     6    3    4 ar
     7    3   20 1
     8    4    5 ar
     9    4   12 1
    10    5    6 ar
    11    5   25 1
    12    6    7 1
    13    7   11 1
    14    7    8 1
    15    8    9 1
    16    8   26 1
    17    8   27 1
    18    9   10 1
    19    9   28 1
    20    9   29 1
    21   10   11 1
    22   10   30 1
    23   10   31 1
    24   11   32 1
    25   11   33 1
    26   12   13 1
    27   12   34 1
    28   13   14 1
    29   13   35 1
    30   13   36 1
    31   14   15 1
    32   14   19 1
    33   14   16 1
    34   16   17 1
    35   16   37 1
    36   16   38 1
    37   17   18 1
    38   17   39 1
    39   17   40 1
    40   18   19 1
    41   18   41 1
    42   18   42 1
    43   20   21 2
    44   20   22 1
@<TRIPOS>MOLECULE
ZINC32474414
   35    36     0     0     0
SMALL
USER_CHARGES
2-methyl-N-[[(1S,2R)-2-methylcyclopropyl]methyl]-4-nitro-benzenesulfonamide
@<TRIPOS>ATOM
      1 C1         -2.9985    4.2633   -2.4010 C.3       1 <0>        -0.1682
      2 C2         -2.4693    3.5240   -1.1991 C.ar      1 <0>         0.0231
      3 C3         -1.1503    3.1110   -1.1671 C.ar      1 <0>        -0.0801
      4 C4         -0.6647    2.4338   -0.0645 C.ar      1 <0>         0.0128
      5 C5         -1.4995    2.1642    1.0041 C.ar      1 <0>        -0.0834
      6 C6         -2.8172    2.5805    0.9738 C.ar      1 <0>        -0.0140
      7 C7         -3.3025    3.2591   -0.1286 C.ar      1 <0>        -0.6501
      8 S1         -4.9834    3.7859   -0.1692 S.o2      1 <0>         2.6953
      9 O1         -5.5879    3.3073    1.0245 O.2       1 <0>        -0.9441
     10 O2         -4.9690    5.1638   -0.5162 O.2       1 <0>        -0.9429
     11 N1         -5.7160    2.9898   -1.4229 N.pl3     1 <0>        -1.1174
     12 C8         -5.8890    1.5361   -1.3662 C.3       1 <0>         0.1180
     13 C9         -6.8780    1.0977   -2.4481 C.3       1 <0>        -0.1986
     14 H1         -7.4218    2.0535   -2.4195 H         1 <0>         0.1340
     15 C10        -6.3524    0.1841   -3.5572 C.3       1 <0>        -0.1415
     16 C11        -7.2829   -0.3775   -2.4792 C.3       1 <0>        -0.1116
     17 H2         -8.2383   -0.9227   -2.4823 H         1 <0>         0.1357
     18 C12        -6.6679   -1.3012   -1.4260 C.3       1 <0>        -0.1573
     19 N2          0.7475    1.9917   -0.0302 N.pl3     1 <0>         0.0170
     20 O3          1.4817    2.2247   -0.9738 O.2       1 <0>        -0.1440
     21 O4          1.1768    1.3993    0.9436 O.3       1 <0>        -0.1419
     22 H3         -2.1951    4.3789   -3.1434 H         1 <0>         0.0948
     23 H4         -3.3578    5.2560   -2.0919 H         1 <0>         0.1156
     24 H5         -3.8289    3.6946   -2.8449 H         1 <0>         0.0888
     25 H6         -0.4992    3.3180   -2.0036 H         1 <0>         0.1637
     26 H7         -1.1213    1.6312    1.8638 H         1 <0>         0.1652
     27 H8         -3.4683    2.3732    1.8101 H         1 <0>         0.1683
     28 H9         -5.9193    3.5318   -2.3583 H         1 <0>         0.4449
     29 H10        -4.9194    1.0446   -1.5348 H         1 <0>         0.0547
     30 H11        -6.2774    1.2513   -0.3772 H         1 <0>         0.0882
     31 H12        -6.6773    0.5699   -4.5347 H         1 <0>         0.0988
     32 H13        -5.2533    0.1576   -3.5204 H         1 <0>         0.0966
     33 H14        -7.0469   -2.3239   -1.5690 H         1 <0>         0.0655
     34 H15        -6.9418   -0.9457   -0.4217 H         1 <0>         0.0644
     35 H16        -5.5728   -1.2981   -1.5301 H         1 <0>         0.0498
@<TRIPOS>BOND
     1    1    2 1
     2    1   22 1
     3    1   23 1
     4    1   24 1
     5    2    7 ar
     6    2    3 ar
     7    3    4 ar
     8    3   25 1
     9    4    5 ar
    10    4   19 1
    11    5    6 ar
    12    5   26 1
    13    6    7 ar
    14    6   27 1
    15    7    8 1
    16    8    9 2
    17    8   10 2
    18    8   11 1
    19   11   12 1
    20   11   28 1
    21   12   13 1
    22   12   29 1
    23   12   30 1
    24   13   14 1
    25   13   16 1
    26   13   15 1
    27   15   16 1
    28   15   31 1
    29   15   32 1
    30   16   17 1
    31   16   18 1
    32   18   33 1
    33   18   34 1
    34   18   35 1
    35   19   20 2
    36   19   21 1
@<TRIPOS>MOLECULE
ZINC40452599
   37    38     0     0     0
SMALL
USER_CHARGES

@<TRIPOS>ATOM
      1 C1         -0.0187    1.5258    0.0104 C.3       1 <0>        -0.1698
      2 C2          0.0021   -0.0041    0.0020 C.3       1 <0>         0.1625
      3 C3          0.7421   -0.5109    1.2415 C.3       1 <0>        -0.1727
      4 N1         -1.3723   -0.5112    0.0124 N.pl3     1 <0>        -0.6743
      5 C4         -1.8505   -1.3539   -1.0864 C.3       1 <0>         0.1423
      6 C5         -1.5777   -2.8232   -0.7581 C.3       1 <0>         0.0455
      7 O1         -2.3525   -3.2090    0.3790 O.3       1 <0>        -0.5617
      8 C6         -2.2238   -0.1922    1.0662 C.ar      1 <0>         0.2782
      9 C7         -3.0170    0.9352    1.0045 C.ar      1 <0>        -0.1583
     10 C8         -3.8703    1.2594    2.0536 C.ar      1 <0>        -0.0050
     11 C9         -3.9475    0.4783    3.1668 C.ar      1 <0>        -0.0499
     12 C10        -3.1572   -0.6784    3.2713 C.ar      1 <0>         0.1732
     13 C11        -2.2889   -1.0215    2.2056 C.ar      1 <0>        -0.1123
     14 C12        -1.5043   -2.1823    2.3109 C.ar      1 <0>         0.0159
     15 C13        -1.6191   -2.9384    3.4438 C.ar      1 <0>        -0.2060
     16 C14        -2.4962   -2.5490    4.4527 C.ar      1 <0>         0.1615
     17 N2         -3.2180   -1.4584    4.3562 N.ar      1 <0>        -0.4663
     18 N3         -4.8649    0.8491    4.2679 N.pl3     1 <0>         0.0365
     19 O2         -5.5451    1.8446    4.1788 O.2       1 <0>        -0.1947
     20 O3         -4.9340    0.1562    5.2563 O.3       1 <0>        -0.1086
     21 H1          1.0039    1.9031    0.0027 H         1 <0>         0.0661
     22 H2         -0.5459    1.8868   -0.8726 H         1 <0>         0.0613
     23 H3         -0.5289    1.8773    0.9072 H         1 <0>         0.0567
     24 H4          0.5123   -0.3556   -0.8948 H         1 <0>         0.0887
     25 H5          0.2319   -0.1594    2.1383 H         1 <0>         0.0554
     26 H6          0.7568   -1.6008    1.2356 H         1 <0>         0.0586
     27 H7          1.7647   -0.1336    1.2338 H         1 <0>         0.0672
     28 H8         -2.9219   -1.2042   -1.2194 H         1 <0>         0.0759
     29 H9         -1.3291   -1.0840   -2.0047 H         1 <0>         0.0909
     30 H10        -1.8517   -3.4431   -1.6117 H         1 <0>         0.0547
     31 H11        -0.5184   -2.9557   -0.5379 H         1 <0>         0.0481
     32 H12        -2.2293   -4.1306    0.6445 H         1 <0>         0.3767
     33 H13        -2.9744    1.5721    0.1333 H         1 <0>         0.1485
     34 H14        -4.4824    2.1465    1.9846 H         1 <0>         0.1583
     35 H15        -0.8293   -2.4695    1.5182 H         1 <0>         0.1516
     36 H16        -1.0304   -3.8368    3.5562 H         1 <0>         0.1397
     37 H17        -2.5769   -3.1558    5.3424 H         1 <0>         0.1656
@<TRIPOS>BOND
     1    1    2 1
     2    1   21 1
     3    1   22 1
     4    1   23 1
     5    2    3 1
     6    2    4 1
     7    2   24 1
     8    3   25 1
     9    3   26 1
    10    3   27 1
    11    4    5 1
    12    4    8 1
    13    5    6 1
    14    5   28 1
    15    5   29 1
    16    6    7 1
    17    6   30 1
    18    6   31 1
    19    7   32 1
    20    8   13 ar
    21    8    9 ar
    22    9   10 ar
    23    9   33 1
    24   10   11 ar
    25   10   34 1
    26   11   12 ar
    27   11   18 1
    28   12   17 ar
    29   12   13 ar
    30   13   14 ar
    31   14   15 ar
    32   14   35 1
    33   15   16 ar
    34   15   36 1
    35   16   17 ar
    36   16   37 1
    37   18   19 2
    38   18   20 1
@<TRIPOS>MOLECULE
ZINC50747816
   41    41     0     0     0
SMALL
USER_CHARGES

@<TRIPOS>ATOM
      1 C1          0.2056    1.1906    1.0274 C.3       1 <0>        -0.1675
      2 C2          0.1755   -0.3163    0.7643 C.3       1 <0>         0.1096
      3 N1          0.8488   -0.6040   -0.5047 N.pl3     1 <0>        -0.7282
      4 C3          0.9480   -1.9211   -0.9599 C.ar      1 <0>         0.2625
      5 C4          0.4028   -2.9582   -0.2116 C.ar      1 <0>        -0.1846
      6 C5          0.4980   -4.2628   -0.6579 C.ar      1 <0>        -0.0037
      7 C6          1.1353   -4.5448   -1.8493 C.ar      1 <0>        -0.0782
      8 C7          1.6860   -3.5109   -2.6081 C.ar      1 <0>        -0.0091
      9 C8          1.5851   -2.1935   -2.1607 C.ar      1 <0>        -0.1707
     10 C9          2.3691   -3.8104   -3.8848 C.2       1 <0>         0.5576
     11 O1          3.2996   -4.5923   -3.9073 O.2       1 <0>        -0.4925
     12 N2          1.9602   -3.2166   -5.0234 N.am      1 <0>        -0.6055
     13 C10         0.9050   -2.2011   -4.9819 C.3       1 <0>         0.0704
     14 C11         2.5709   -3.5864   -6.3027 C.3       1 <0>         0.1224
     15 C12         1.7873   -4.7431   -6.9264 C.3       1 <0>        -0.1164
     16 C13         0.3735   -4.2726   -7.2738 C.3       1 <0>        -0.1487
     17 C14         2.4959   -5.2117   -8.1988 C.3       1 <0>        -0.1442
     18 N3          1.2351   -5.9440   -2.3220 N.pl3     1 <0>         0.0384
     19 O2          0.8643   -6.8497   -1.6122 O.2       1 <0>        -0.1777
     20 O3          1.6874   -6.1810   -3.4179 O.3       1 <0>        -0.1362
     21 H1          1.2402    1.5297    1.0799 H         1 <0>         0.0644
     22 H2         -0.3067    1.7110    0.2181 H         1 <0>         0.0644
     23 H3         -0.2953    1.4046    1.9715 H         1 <0>         0.0792
     24 H4          0.6878   -0.8367    1.5735 H         1 <0>         0.0694
     25 H5         -0.8590   -0.6554    0.7117 H         1 <0>         0.0696
     26 H6          1.2256    0.1200   -1.0288 H         1 <0>         0.4077
     27 H7         -0.0964   -2.7438    0.7218 H         1 <0>         0.1484
     28 H8          0.0726   -5.0643   -0.0722 H         1 <0>         0.1582
     29 H9          2.0053   -1.3889   -2.7458 H         1 <0>         0.1477
     30 H10         1.3435   -1.2308   -4.7488 H         1 <0>         0.0583
     31 H11         0.4093   -2.1524   -5.9514 H         1 <0>         0.0828
     32 H12         0.1772   -2.4647   -4.2145 H         1 <0>         0.0678
     33 H13         2.5512   -2.7295   -6.9760 H         1 <0>         0.0789
     34 H14         3.6032   -3.8946   -6.1369 H         1 <0>         0.0884
     35 H15         1.7314   -5.5685   -6.2167 H         1 <0>         0.0843
     36 H16         0.4294   -3.4472   -7.9835 H         1 <0>         0.0531
     37 H17        -0.1848   -5.0966   -7.7181 H         1 <0>         0.0559
     38 H18        -0.1314   -3.9388   -6.3672 H         1 <0>         0.0532
     39 H19         3.5031   -5.5469   -7.9513 H         1 <0>         0.0583
     40 H20         1.9377   -6.0357   -8.6431 H         1 <0>         0.0586
     41 H21         2.5518   -4.3863   -8.9085 H         1 <0>         0.0537
@<TRIPOS>BOND
     1    1    2 1
     2    1   21 1
     3    1   22 1
     4    1   23 1
     5    2    3 1
     6    2   24 1
     7    2   25 1
     8    3    4 1
     9    3   26 1
    10    4    9 ar
    11    4    5 ar
    12    5    6 ar
    13    5   27 1
    14    6    7 ar
    15    6   28 1
    16    7    8 ar
    17    7   18 1
    18    8    9 ar
    19    8   10 1
    20    9   29 1
    21   10   11 2
    22   10   12 am
    23   12   13 1
    24   12   14 1
    25   13   30 1
    26   13   31 1
    27   13   32 1
    28   14   15 1
    29   14   33 1
    30   14   34 1
    31   15   16 1
    32   15   17 1
    33   15   35 1
    34   16   36 1
    35   16   37 1
    36   16   38 1
    37   17   39 1
    38   17   40 1
    39   17   41 1
    40   18   19 2
    41   18   20 1
@<TRIPOS>MOLECULE
ZINC07226682
   36    38     0     0     0
SMALL
USER_CHARGES

@<TRIPOS>ATOM
      1 C1         -0.0184    1.5028    0.0103 C.3       1 <0>        -0.0886
      2 C2          0.0021   -0.0041    0.0020 C.2       1 <0>         0.0974
      3 C3          0.0080   -0.8206   -1.1414 C.2       1 <0>        -0.1840
      4 C4          0.0280   -2.1181   -0.7299 C.2       1 <0>         0.0352
      5 O1          0.0344   -2.1196    0.6179 O.3       1 <0>        -0.0472
      6 N1          0.0230   -0.7724    1.0535 N.2       1 <0>        -0.2850
      7 C5          0.0400   -3.3068   -1.6011 C.2       1 <0>         0.5483
      8 O2          0.0320   -3.1749   -2.8089 O.2       1 <0>        -0.4690
      9 O3          0.0597   -4.5402   -1.0580 O.3       1 <0>        -0.3083
     10 C6          0.0704   -5.6470   -1.9618 C.3       1 <0>         0.0424
     11 H1         -0.4519   -5.3726   -2.8783 H         1 <0>         0.1126
     12 C7          1.5165   -6.0221   -2.2917 C.3       1 <0>        -0.1680
     13 C8         -0.6206   -6.8240   -1.3229 C.2       1 <0>         0.4274
     14 O4         -0.8343   -6.8270   -0.1278 O.2       1 <0>        -0.4366
     15 C9         -1.0210   -7.9273   -2.1172 C.2       1 <0>        -0.2714
     16 C10        -0.8458   -8.0759   -3.4765 C.2       1 <0>         0.1391
     17 N2         -1.3572   -9.2572   -3.8721 N.pl3     1 <0>        -0.5639
     18 H2         -1.3508   -9.5826   -4.7859 H         1 <0>         0.4241
     19 C11        -1.8916   -9.9416   -2.7993 C.ar      1 <0>         0.0743
     20 C12        -1.7039   -9.1515   -1.6543 C.ar      1 <0>        -0.0555
     21 C13        -2.1455   -9.6017   -0.4139 C.ar      1 <0>        -0.0721
     22 C14        -2.7653  -10.8290   -0.3145 C.ar      1 <0>        -0.1296
     23 C15        -2.9489  -11.6128   -1.4437 C.ar      1 <0>        -0.0998
     24 C16        -2.5232  -11.1752   -2.6793 C.ar      1 <0>        -0.1202
     25 H3          1.0042    1.8801    0.0026 H         1 <0>         0.0954
     26 H4         -0.5455    1.8639   -0.8728 H         1 <0>         0.0933
     27 H5         -0.5286    1.8543    0.9071 H         1 <0>         0.0879
     28 H6         -0.0019   -0.4792   -2.1659 H         1 <0>         0.1780
     29 H7          1.5247   -6.8663   -2.9812 H         1 <0>         0.0848
     30 H8          2.0163   -5.1708   -2.7538 H         1 <0>         0.0766
     31 H9          2.0389   -6.2964   -1.3752 H         1 <0>         0.0777
     32 H10        -0.3710   -7.3547   -4.1253 H         1 <0>         0.1869
     33 H11        -2.0031   -8.9928    0.4666 H         1 <0>         0.1341
     34 H12        -3.1089  -11.1816    0.6467 H         1 <0>         0.1288
     35 H13        -3.4356  -12.5728   -1.3549 H         1 <0>         0.1302
     36 H14        -2.6696  -11.7945   -3.5519 H         1 <0>         0.1245
@<TRIPOS>BOND
     1    1    2 1
     2    1   25 1
     3    1   26 1
     4    1   27 1
     5    2    6 2
     6    2    3 1
     7    3    4 2
     8    3   28 1
     9    4    5 1
    10    4    7 1
    11    5    6 1
    12    7    8 2
    13    7    9 1
    14    9   10 1
    15   10   11 1
    16   10   12 1
    17   10   13 1
    18   12   29 1
    19   12   30 1
    20   12   31 1
    21   13   14 2
    22   13   15 1
    23   15   20 1
    24   15   16 2
    25   16   17 1
    26   16   32 1
    27   17   18 1
    28   17   19 1
    29   19   24 ar
    30   19   20 ar
    31   20   21 ar
    32   21   22 ar
    33   21   33 1
    34   22   23 ar
    35   22   34 1
    36   23   24 ar
    37   23   35 1
    38   24   36 1
@<TRIPOS>MOLECULE
ZINC04744631
   47    48     0     0     0
SMALL
USER_CHARGES
hexyl 4-(4-bromophenyl)-6-methyl-2-oxo-3,4-dihydro-1H-pyrimidine-5-carboxylate
@<TRIPOS>ATOM
      1 C1          0.4755    3.1481   -3.5402 C.3       1 <0>        -0.1545
      2 C2          1.0842    2.4824   -2.3044 C.3       1 <0>        -0.1261
      3 C3          0.2157    2.7858   -1.0818 C.3       1 <0>        -0.1187
      4 C4          0.8243    2.1201    0.1540 C.3       1 <0>        -0.1181
      5 C5         -0.0441    2.4236    1.3765 C.3       1 <0>        -0.1183
      6 C6          0.5645    1.7578    2.6124 C.3       1 <0>         0.0673
      7 O1         -0.2467    2.0413    3.7542 O.3       1 <0>        -0.3431
      8 C7          0.1542    1.5236    4.9342 C.2       1 <0>         0.5361
      9 O2          1.1657    0.8496    4.9906 O.2       1 <0>        -0.5149
     10 C8         -0.6015    1.7644    6.1054 C.2       1 <0>        -0.2847
     11 C9         -0.2934    1.1581    7.2721 C.2       1 <0>         0.2606
     12 N1         -1.0209    1.3951    8.4032 N.am      1 <0>        -0.6465
     13 C10        -2.0774    2.2165    8.4481 C.2       1 <0>         0.7049
     14 O3         -2.6657    2.3607    9.5020 O.2       1 <0>        -0.5581
     15 N2         -2.5095    2.8890    7.3630 N.am      1 <0>        -0.7106
     16 C11        -1.7882    2.7065    6.0921 C.3       1 <0>         0.2368
     17 H1         -1.4375    3.6841    5.7614 H         1 <0>         0.0942
     18 C12        -2.7716    2.2006    5.0684 C.ar      1 <0>        -0.0928
     19 C13        -3.6186    1.1540    5.3820 C.ar      1 <0>        -0.0921
     20 C14        -4.5240    0.6928    4.4450 C.ar      1 <0>        -0.0947
     21 C15        -4.5753    1.2717    3.1898 C.ar      1 <0>        -0.0831
     22 C16        -3.7240    2.3155    2.8747 C.ar      1 <0>        -0.0930
     23 C17        -2.8226    2.7795    3.8141 C.ar      1 <0>        -0.0699
     24 Br1        -5.8093    0.6369    1.9052 Br        1 <0>        -0.0503
     25 C18         0.8759    0.2090    7.3281 C.3       1 <0>        -0.1417
     26 H2          0.4288    4.2261   -3.3863 H         1 <0>         0.0537
     27 H3          1.0942    2.9319   -4.4112 H         1 <0>         0.0538
     28 H4         -0.5300    2.7604   -3.7036 H         1 <0>         0.0539
     29 H5          2.0897    2.8700   -2.1410 H         1 <0>         0.0611
     30 H6          1.1309    1.4043   -2.4583 H         1 <0>         0.0612
     31 H7         -0.7899    2.3982   -1.2452 H         1 <0>         0.0635
     32 H8          0.1690    3.8639   -0.9279 H         1 <0>         0.0632
     33 H9          0.8711    1.0420    0.0001 H         1 <0>         0.0653
     34 H10         1.8299    2.5077    0.3174 H         1 <0>         0.0654
     35 H11        -0.0909    3.5016    1.5305 H         1 <0>         0.0735
     36 H12        -1.0497    2.0359    1.2131 H         1 <0>         0.0742
     37 H13         0.6112    0.6798    2.4585 H         1 <0>         0.0664
     38 H14         1.5700    2.1455    2.7758 H         1 <0>         0.0673
     39 H15        -0.7602    0.9397    9.2191 H         1 <0>         0.4313
     40 H16        -3.2771    3.4795    7.4179 H         1 <0>         0.4346
     41 H17        -3.5756    0.6993    6.3607 H         1 <0>         0.1214
     42 H18        -5.1887   -0.1220    4.6916 H         1 <0>         0.1315
     43 H19        -3.7640    2.7680    1.8949 H         1 <0>         0.1335
     44 H20        -2.1576    3.5941    3.5680 H         1 <0>         0.1362
     45 H21         1.7956    0.7741    7.4796 H         1 <0>         0.1024
     46 H22         0.7380   -0.4890    8.1539 H         1 <0>         0.0737
     47 H23         0.9397   -0.3445    6.3913 H         1 <0>         0.1239
@<TRIPOS>BOND
     1    1    2 1
     2    1   26 1
     3    1   27 1
     4    1   28 1
     5    2    3 1
     6    2   29 1
     7    2   30 1
     8    3    4 1
     9    3   31 1
    10    3   32 1
    11    4    5 1
    12    4   33 1
    13    4   34 1
    14    5    6 1
    15    5   35 1
    16    5   36 1
    17    6    7 1
    18    6   37 1
    19    6   38 1
    20    7    8 1
    21    8    9 2
    22    8   10 1
    23   10   16 1
    24   10   11 2
    25   11   12 1
    26   11   25 1
    27   12   13 am
    28   12   39 1
    29   13   14 2
    30   13   15 am
    31   15   16 1
    32   15   40 1
    33   16   17 1
    34   16   18 1
    35   18   23 ar
    36   18   19 ar
    37   19   20 ar
    38   19   41 1
    39   20   21 ar
    40   20   42 1
    41   21   22 ar
    42   21   24 1
    43   22   23 ar
    44   22   43 1
    45   23   44 1
    46   25   45 1
    47   25   46 1
    48   25   47 1
@<TRIPOS>MOLECULE
ZINC15240334
   47    50     0     0     0
SMALL
USER_CHARGES
(2R)-1-[(5-anilino-1,3,4-thiadiazol-2-yl)sulfanyl]-3-(2-naphthyloxy)propan-2-ol
@<TRIPOS>ATOM
      1 C1          9.8549    5.5144    0.6072 C.ar      1 <0>        -0.1359
      2 C2          8.9267    4.6516    1.1609 C.ar      1 <0>        -0.0910
      3 C3          8.2297    3.7743    0.3538 C.ar      1 <0>        -0.1323
      4 C4          8.4618    3.7591   -1.0160 C.ar      1 <0>         0.1542
      5 C5          9.3988    4.6236   -1.5681 C.ar      1 <0>        -0.1472
      6 C6         10.0888    5.5017   -0.7557 C.ar      1 <0>        -0.0932
      7 N1          7.7588    2.8725   -1.8355 N.pl3     1 <0>        -0.6051
      8 C7          6.5062    2.4108   -1.4467 C.2       1 <0>         0.3356
      9 N2          5.7693    2.7650   -0.4120 N.2       1 <0>        -0.3529
     10 N3          4.5431    2.1747   -0.2104 N.2       1 <0>        -0.2794
     11 C8          4.1102    1.2567   -1.0536 C.2       1 <0>         0.0363
     12 S1          5.4677    1.1751   -2.2118 S.3       1 <0>         0.0181
     13 S2          2.6003    0.3487   -1.0372 S.3       1 <0>         0.0892
     14 C9          1.7348    0.9630    0.4339 C.3       1 <0>        -0.1576
     15 C10         0.3890    0.2478    0.5696 C.3       1 <0>         0.1285
     16 H1          0.5559   -0.8249    0.6677 H         1 <0>         0.1242
     17 C11        -0.3410    0.7659    1.8104 C.3       1 <0>         0.0333
     18 O1         -1.5430    0.0175    2.0031 O.3       1 <0>        -0.3018
     19 C12        -2.3146    0.3534    3.0699 C.ar      1 <0>         0.1303
     20 C13        -1.9072    1.3884    3.9176 C.ar      1 <0>        -0.1923
     21 C14        -2.6608    1.7514    4.9897 C.ar      1 <0>        -0.0632
     22 C15        -3.8613    1.0717    5.2604 C.ar      1 <0>        -0.0840
     23 C16        -4.6608    1.4164    6.3634 C.ar      1 <0>        -0.0948
     24 C17        -5.8171    0.7373    6.5959 C.ar      1 <0>        -0.1276
     25 C18        -6.2224   -0.2985    5.7560 C.ar      1 <0>        -0.1042
     26 C19        -5.4738   -0.6604    4.6787 C.ar      1 <0>        -0.1153
     27 C20        -4.2734    0.0184    4.4060 C.ar      1 <0>        -0.0134
     28 C21        -3.4750   -0.3279    3.3036 C.ar      1 <0>        -0.1507
     29 O2         -0.4048    0.5022   -0.5910 O.3       1 <0>        -0.5400
     30 H2         10.3987    6.1995    1.2408 H         1 <0>         0.1259
     31 H3          8.7471    4.6637    2.2258 H         1 <0>         0.1279
     32 H4          7.5052    3.1005    0.7868 H         1 <0>         0.1402
     33 H5          9.5850    4.6113   -2.6319 H         1 <0>         0.1279
     34 H6         10.8149    6.1763   -1.1847 H         1 <0>         0.1297
     35 H7          8.1445    2.5789   -2.6757 H         1 <0>         0.4311
     36 H8          1.5679    2.0356    0.3358 H         1 <0>         0.1058
     37 H9          2.3403    0.7689    1.3192 H         1 <0>         0.1131
     38 H10         0.3014    0.6526    2.6837 H         1 <0>         0.0772
     39 H11        -0.5866    1.8190    1.6742 H         1 <0>         0.0718
     40 H12        -0.9831    1.9096    3.7154 H         1 <0>         0.1294
     41 H13        -2.3361    2.5557    5.6333 H         1 <0>         0.1323
     42 H14        -4.3592    2.2164    7.0233 H         1 <0>         0.1269
     43 H15        -6.4296    1.0047    7.4443 H         1 <0>         0.1237
     44 H16        -7.1440   -0.8219    5.9635 H         1 <0>         0.1246
     45 H17        -5.8002   -1.4653    4.0367 H         1 <0>         0.1289
     46 H18        -3.7768   -1.1285    2.6446 H         1 <0>         0.1361
     47 H19        -0.5933    1.4387   -0.7411 H         1 <0>         0.3800
@<TRIPOS>BOND
     1    1    6 ar
     2    1    2 ar
     3    1   30 1
     4    2    3 ar
     5    2   31 1
     6    3    4 ar
     7    3   32 1
     8    4    5 ar
     9    4    7 1
    10    5    6 ar
    11    5   33 1
    12    6   34 1
    13    7    8 1
    14    7   35 1
    15    8   12 1
    16    8    9 2
    17    9   10 1
    18   10   11 2
    19   11   12 1
    20   11   13 1
    21   13   14 1
    22   14   15 1
    23   14   36 1
    24   14   37 1
    25   15   16 1
    26   15   17 1
    27   15   29 1
    28   17   18 1
    29   17   38 1
    30   17   39 1
    31   18   19 1
    32   19   28 ar
    33   19   20 ar
    34   20   21 ar
    35   20   40 1
    36   21   22 ar
    37   21   41 1
    38   22   27 ar
    39   22   23 ar
    40   23   24 ar
    41   23   42 1
    42   24   25 ar
    43   24   43 1
    44   25   26 ar
    45   25   44 1
    46   26   27 ar
    47   26   45 1
    48   27   28 ar
    49   28   46 1
    50   29   47 1
@<TRIPOS>MOLECULE
ZINC36483306
   53    54     0     0     0
SMALL
USER_CHARGES

@<TRIPOS>ATOM
      1 C1          1.3436    0.6369   -1.4155 C.3       1 <0>        -0.1533
      2 C2          1.0965   -0.8726   -1.3787 C.3       1 <0>        -0.1217
      3 C3         -0.3682   -1.1412   -1.0275 C.3       1 <0>        -0.1324
      4 C4         -0.6153   -2.6507   -0.9907 C.3       1 <0>         0.1194
      5 N1         -2.0178   -2.9079   -0.6544 N.am      1 <0>        -0.7248
      6 C5         -2.4678   -4.1752   -0.5647 C.2       1 <0>         0.5088
      7 O1         -1.7117   -5.1026   -0.7623 O.2       1 <0>        -0.5210
      8 C6         -3.9105   -4.4397   -0.2188 C.3       1 <0>         0.1525
      9 H1         -4.5540   -3.9845   -0.9717 H         1 <0>         0.1395
     10 C7         -4.2202   -3.8470    1.1316 C.2       1 <0>        -0.2008
     11 C8         -5.2240   -3.0164    1.2678 C.2       1 <0>        -0.1084
     12 C9         -6.1460   -2.7517    0.1055 C.3       1 <0>        -0.1431
     13 N2         -4.1471   -5.8851   -0.1836 N.am      1 <0>        -0.5436
     14 C10        -3.4865   -6.6790    0.7594 C.ar      1 <0>         0.1608
     15 C11        -2.6130   -7.6749    0.3411 C.ar      1 <0>        -0.0863
     16 C12        -1.9620   -8.4575    1.2742 C.ar      1 <0>        -0.0929
     17 C13        -2.1789   -8.2514    2.6243 C.ar      1 <0>        -0.1101
     18 C14        -3.0483   -7.2603    3.0449 C.ar      1 <0>        -0.0253
     19 C15        -3.6982   -6.4696    2.1156 C.ar      1 <0>        -0.1349
     20 Cl1        -3.3176   -7.0050    4.7408 Cl        1 <0>        -0.0625
     21 C16        -5.0013   -6.4497   -1.0599 C.2       1 <0>         0.5718
     22 O2         -5.5847   -5.7578   -1.8721 O.2       1 <0>        -0.5018
     23 C17        -5.2286   -7.9069   -1.0338 C.ar      1 <0>        -0.1691
     24 C18        -5.0882   -8.6187    0.1602 C.ar      1 <0>        -0.0719
     25 C19        -5.3019   -9.9797    0.1779 C.ar      1 <0>        -0.1365
     26 C20        -5.6557  -10.6469   -0.9837 C.ar      1 <0>        -0.0717
     27 C21        -5.7975   -9.9560   -2.1705 C.ar      1 <0>        -0.1573
     28 C22        -5.5923   -8.5846   -2.2054 C.ar      1 <0>         0.1686
     29 O3         -5.7372   -7.9034   -3.3696 O.3       1 <0>        -0.4794
     30 H2          2.3871    0.8282   -1.6656 H         1 <0>         0.0569
     31 H3          0.7000    1.0921   -2.1683 H         1 <0>         0.0549
     32 H4          1.1196    1.0656   -0.4387 H         1 <0>         0.0548
     33 H5          1.3204   -1.3013   -2.3555 H         1 <0>         0.0653
     34 H6          1.7400   -1.3279   -0.6258 H         1 <0>         0.0653
     35 H7         -0.5922   -0.7125   -0.0507 H         1 <0>         0.0700
     36 H8         -1.0118   -0.6860   -1.7803 H         1 <0>         0.0699
     37 H9         -0.3914   -3.0794   -1.9675 H         1 <0>         0.0682
     38 H10         0.0282   -3.1059   -0.2379 H         1 <0>         0.0685
     39 H11        -2.6226   -2.1662   -0.4964 H         1 <0>         0.4017
     40 H12        -3.6145   -4.1069    1.9872 H         1 <0>         0.1254
     41 H13        -5.3909   -2.5214    2.2131 H         1 <0>         0.1240
     42 H14        -6.9638   -2.1081    0.4297 H         1 <0>         0.0694
     43 H15        -5.5913   -2.2596   -0.6935 H         1 <0>         0.0708
     44 H16        -6.5496   -3.6957   -0.2604 H         1 <0>         0.0763
     45 H17        -2.4434   -7.8372   -0.7130 H         1 <0>         0.1306
     46 H18        -1.2828   -9.2318    0.9492 H         1 <0>         0.1385
     47 H19        -1.6690   -8.8654    3.3520 H         1 <0>         0.1376
     48 H20        -4.3733   -5.6932    2.4439 H         1 <0>         0.1439
     49 H21        -4.8122   -8.1028    1.0680 H         1 <0>         0.1405
     50 H22        -5.1928  -10.5291    1.1013 H         1 <0>         0.1318
     51 H23        -5.8213  -11.7139   -0.9607 H         1 <0>         0.1330
     52 H24        -6.0729  -10.4832   -3.0719 H         1 <0>         0.1371
     53 H25        -4.9264   -7.8423   -3.8930 H         1 <0>         0.3929
@<TRIPOS>BOND
     1    1    2 1
     2    1   30 1
     3    1   31 1
     4    1   32 1
     5    2    3 1
     6    2   33 1
     7    2   34 1
     8    3    4 1
     9    3   35 1
    10    3   36 1
    11    4    5 1
    12    4   37 1
    13    4   38 1
    14    5    6 am
    15    5   39 1
    16    6    7 2
    17    6    8 1
    18    8    9 1
    19    8   10 1
    20    8   13 1
    21   10   11 2
    22   10   40 1
    23   11   12 1
    24   11   41 1
    25   12   42 1
    26   12   43 1
    27   12   44 1
    28   13   14 1
    29   13   21 am
    30   14   19 ar
    31   14   15 ar
    32   15   16 ar
    33   15   45 1
    34   16   17 ar
    35   16   46 1
    36   17   18 ar
    37   17   47 1
    38   18   19 ar
    39   18   20 1
    40   19   48 1
    41   21   22 2
    42   21   23 1
    43   23   28 ar
    44   23   24 ar
    45   24   25 ar
    46   24   49 1
    47   25   26 ar
    48   25   50 1
    49   26   27 ar
    50   26   51 1
    51   27   28 ar
    52   27   52 1
    53   28   29 1
    54   29   53 1
@<TRIPOS>MOLECULE
ZINC05448100
   63    64     0     0     0
SMALL
USER_CHARGES

@<TRIPOS>ATOM
      1 C1         -0.0187    1.5258    0.0104 C.3       1 <0>        -0.1672
      2 C2          0.0021   -0.0041    0.0020 C.3       1 <0>         0.0693
      3 H1          0.5123   -0.3556   -0.8948 H         1 <0>         0.1107
      4 C3         -1.4117   -0.5257    0.0127 C.2       1 <0>         0.5219
      5 O1         -1.8179   -1.1571    0.9652 O.2       1 <0>        -0.5120
      6 N1         -2.2247   -0.2905   -1.0362 N.am      1 <0>        -0.6982
      7 C4         -3.5992   -0.7976   -1.0258 C.3       1 <0>         0.0767
      8 C5         -4.1242   -1.4418   -2.3104 C.3       1 <0>        -0.1913
      9 C6         -4.6300   -0.0621   -1.8844 C.3       1 <0>        -0.1862
     10 O2          0.6932   -0.4774    1.1597 O.3       1 <0>        -0.3242
     11 C7          2.0179   -0.6620    1.0456 C.2       1 <0>         0.4635
     12 O3          2.5722   -0.4293   -0.0024 O.2       1 <0>        -0.5034
     13 C8          2.8136   -1.1594    2.2248 C.3       1 <0>        -0.1065
     14 C9          4.2869   -1.2819    1.8306 C.3       1 <0>        -0.0666
     15 C10         5.0827   -1.7793    3.0098 C.ar      1 <0>        -0.0892
     16 C11         5.6300   -0.8769    3.9031 C.ar      1 <0>        -0.1071
     17 C12         6.3603   -1.3303    4.9845 C.ar      1 <0>        -0.0886
     18 C13         6.5439   -2.6923    5.1741 C.ar      1 <0>         0.1152
     19 C14         5.9934   -3.5956    4.2766 C.ar      1 <0>        -0.0883
     20 C15         5.2595   -3.1374    3.1996 C.ar      1 <0>        -0.1070
     21 C16         6.1909   -5.0758    4.4795 C.3       1 <0>        -0.0214
     22 C17         5.4872   -5.8427    3.3580 C.3       1 <0>        -0.1467
     23 C18         7.6863   -5.3985    4.4576 C.3       1 <0>        -0.1416
     24 C19         5.5997   -5.4890    5.8288 C.3       1 <0>        -0.1420
     25 O4          7.2623   -3.1408    6.2369 O.3       1 <0>        -0.4859
     26 C20         6.9574   -0.3462    5.9572 C.3       1 <0>        -0.0213
     27 C21         6.6091    1.0780    5.5202 C.3       1 <0>        -0.1465
     28 C22         6.3914   -0.6036    7.3552 C.3       1 <0>        -0.1420
     29 C23         8.4779   -0.5141    5.9837 C.3       1 <0>        -0.1417
     30 H2          1.0039    1.9031    0.0027 H         1 <0>         0.0775
     31 H3         -0.5459    1.8868   -0.8726 H         1 <0>         0.0807
     32 H4         -0.5289    1.8773    0.9072 H         1 <0>         0.0754
     33 H5         -1.8999    0.2146   -1.7979 H         1 <0>         0.4037
     34 H6         -3.9392   -1.2146   -0.0778 H         1 <0>         0.1403
     35 H7         -3.4471   -1.4883   -3.1632 H         1 <0>         0.0984
     36 H8         -4.8098   -2.2829   -2.2078 H         1 <0>         0.1051
     37 H9         -5.6484    0.0045   -1.5015 H         1 <0>         0.1064
     38 H10        -4.2856    0.7991   -2.4570 H         1 <0>         0.0989
     39 H11         2.7160   -0.4560    3.0517 H         1 <0>         0.1104
     40 H12         2.4373   -2.1353    2.5315 H         1 <0>         0.1106
     41 H13         4.3845   -1.9852    1.0037 H         1 <0>         0.0830
     42 H14         4.6633   -0.3060    1.5239 H         1 <0>         0.0833
     43 H15         5.4868    0.1833    3.7550 H         1 <0>         0.1294
     44 H16         4.8270   -3.8403    2.5031 H         1 <0>         0.1295
     45 H17         5.9084   -5.5483    2.3968 H         1 <0>         0.0584
     46 H18         5.6301   -6.9133    3.5048 H         1 <0>         0.0591
     47 H19         4.4219   -5.6128    3.3736 H         1 <0>         0.0579
     48 H20         8.1877   -4.8521    5.2565 H         1 <0>         0.0747
     49 H21         7.8292   -6.4690    4.6043 H         1 <0>         0.0538
     50 H22         8.1075   -5.1041    3.4963 H         1 <0>         0.0507
     51 H23         4.5344   -5.2591    5.8444 H         1 <0>         0.0543
     52 H24         5.7426   -6.5596    5.9756 H         1 <0>         0.0603
     53 H25         6.1010   -4.9427    6.6277 H         1 <0>         0.0580
     54 H26         6.7326   -3.3025    7.0296 H         1 <0>         0.3809
     55 H27         5.5258    1.1976    5.5013 H         1 <0>         0.0577
     56 H28         7.0409    1.7898    6.2238 H         1 <0>         0.0590
     57 H29         7.0123    1.2614    4.5243 H         1 <0>         0.0584
     58 H30         6.6396   -1.6183    7.6665 H         1 <0>         0.0580
     59 H31         6.8233    0.1081    8.0587 H         1 <0>         0.0602
     60 H32         5.3082   -0.4841    7.3363 H         1 <0>         0.0542
     61 H33         8.8812   -0.3307    4.9878 H         1 <0>         0.0507
     62 H34         8.9098    0.1977    6.6873 H         1 <0>         0.0538
     63 H35         8.7261   -1.5288    6.2950 H         1 <0>         0.0748
@<TRIPOS>BOND
     1    1    2 1
     2    1   30 1
     3    1   31 1
     4    1   32 1
     5    2    3 1
     6    2    4 1
     7    2   10 1
     8    4    5 2
     9    4    6 am
    10    6    7 1
    11    6   33 1
    12    7    9 1
    13    7    8 1
    14    7   34 1
    15    8    9 1
    16    8   35 1
    17    8   36 1
    18    9   37 1
    19    9   38 1
    20   10   11 1
    21   11   12 2
    22   11   13 1
    23   13   14 1
    24   13   39 1
    25   13   40 1
    26   14   15 1
    27   14   41 1
    28   14   42 1
    29   15   20 ar
    30   15   16 ar
    31   16   17 ar
    32   16   43 1
    33   17   18 ar
    34   17   26 1
    35   18   19 ar
    36   18   25 1
    37   19   20 ar
    38   19   21 1
    39   20   44 1
    40   21   22 1
    41   21   23 1
    42   21   24 1
    43   22   45 1
    44   22   46 1
    45   22   47 1
    46   23   48 1
    47   23   49 1
    48   23   50 1
    49   24   51 1
    50   24   52 1
    51   24   53 1
    52   25   54 1
    53   26   27 1
    54   26   28 1
    55   26   29 1
    56   27   55 1
    57   27   56 1
    58   27   57 1
    59   28   58 1
    60   28   59 1
    61   28   60 1
    62   29   61 1
    63   29   62 1
    64   29   63 1
@<TRIPOS>MOLECULE
ZINC03244207
   50    52     0     0     0
SMALL
USER_CHARGES

@<TRIPOS>ATOM
      1 C1          0.0289    1.5032    0.0050 C.3       1 <0>        -0.1144
      2 C2          0.0361   -0.0037   -0.0017 C.ar      1 <0>        -0.1022
      3 C3          0.6470   -0.6953    1.0284 C.ar      1 <0>        -0.0916
      4 C4          0.6559   -2.0762    1.0252 C.ar      1 <0>        -0.1285
      5 C5          0.0497   -2.7707   -0.0142 C.ar      1 <0>         0.1490
      6 C6         -0.5636   -2.0728   -1.0472 C.ar      1 <0>        -0.1429
      7 C7         -0.5732   -0.6919   -1.0350 C.ar      1 <0>        -0.0942
      8 N1          0.0572   -4.1678   -0.0209 N.pl3     1 <0>        -0.6044
      9 C8          0.1773   -4.8681    1.1743 C.2       1 <0>         0.3349
     10 N2          0.1906   -4.4128    2.4118 N.2       1 <0>        -0.3535
     11 N3          0.3205   -5.2906    3.4631 N.2       1 <0>        -0.2808
     12 C9          0.4310   -6.5843    3.2279 C.2       1 <0>         0.0281
     13 S1          0.3468   -6.6258    1.4441 S.3       1 <0>         0.0208
     14 S2          0.6073   -7.9155    4.3687 S.3       1 <0>         0.1308
     15 C10         0.6042   -7.1057    5.9920 C.3       1 <0>        -0.1605
     16 C11         0.7505   -8.1459    7.0725 C.2       1 <0>         0.5357
     17 O1          0.8474   -9.3181    6.7767 O.2       1 <0>        -0.5204
     18 N4          0.7738   -7.7736    8.3676 N.am      1 <0>        -0.7230
     19 C12         0.9160   -8.7848    9.4181 C.3       1 <0>         0.1248
     20 C13         0.9134   -8.1018   10.7872 C.3       1 <0>        -0.0989
     21 C14         1.0597   -9.1420   11.8677 C.2       1 <0>        -0.1233
     22 C15         2.2472   -9.3793   12.3250 C.2       1 <0>        -0.1447
     23 C16         2.5512  -10.3914   13.3905 C.3       1 <0>        -0.0923
     24 C17         1.2705  -10.7726   14.1361 C.3       1 <0>        -0.1221
     25 C18         0.1910  -11.1162   13.1019 C.3       1 <0>        -0.1213
     26 C19        -0.1811   -9.8340   12.3510 C.3       1 <0>        -0.0839
     27 H1         -0.8562    1.8600    0.5319 H         1 <0>         0.0707
     28 H2          0.9236    1.8686    0.5090 H         1 <0>         0.0668
     29 H3          0.0139    1.8711   -1.0209 H         1 <0>         0.0667
     30 H4          1.1181   -0.1547    1.8361 H         1 <0>         0.1273
     31 H5          1.1338   -2.6156    1.8296 H         1 <0>         0.1424
     32 H6         -1.0357   -2.6096   -1.8567 H         1 <0>         0.1280
     33 H7         -1.0532   -0.1488   -1.8355 H         1 <0>         0.1290
     34 H8         -0.0214   -4.6493   -0.8593 H         1 <0>         0.4307
     35 H9          1.4356   -6.4031    6.0491 H         1 <0>         0.1290
     36 H10        -0.3348   -6.5694    6.1287 H         1 <0>         0.1290
     37 H11         0.6963   -6.8361    8.6042 H         1 <0>         0.4052
     38 H12         0.0847   -9.4875    9.3610 H         1 <0>         0.0731
     39 H13         1.8551   -9.3211    9.2814 H         1 <0>         0.0727
     40 H14         1.7447   -7.3992   10.8443 H         1 <0>         0.0755
     41 H15        -0.0256   -7.5655   10.9239 H         1 <0>         0.0771
     42 H16         3.0705   -8.8141   11.9138 H         1 <0>         0.1034
     43 H17         2.9805  -11.2818   12.9312 H         1 <0>         0.0745
     44 H18         3.2678   -9.9698   14.0954 H         1 <0>         0.0716
     45 H19         1.4596  -11.6390   14.7700 H         1 <0>         0.0653
     46 H20         0.9386   -9.9332   14.7471 H         1 <0>         0.0640
     47 H21         0.5773  -11.8564   12.4012 H         1 <0>         0.0656
     48 H22        -0.6894  -11.5114   13.6087 H         1 <0>         0.0661
     49 H23        -0.7305   -9.1679   13.0162 H         1 <0>         0.0737
     50 H24        -0.8095  -10.0872   11.4970 H         1 <0>         0.0712
@<TRIPOS>BOND
     1    1    2 1
     2    1   27 1
     3    1   28 1
     4    1   29 1
     5    2    7 ar
     6    2    3 ar
     7    3    4 ar
     8    3   30 1
     9    4    5 ar
    10    4   31 1
    11    5    6 ar
    12    5    8 1
    13    6    7 ar
    14    6   32 1
    15    7   33 1
    16    8    9 1
    17    8   34 1
    18    9   13 1
    19    9   10 2
    20   10   11 1
    21   11   12 2
    22   12   13 1
    23   12   14 1
    24   14   15 1
    25   15   16 1
    26   15   35 1
    27   15   36 1
    28   16   17 2
    29   16   18 am
    30   18   19 1
    31   18   37 1
    32   19   20 1
    33   19   38 1
    34   19   39 1
    35   20   21 1
    36   20   40 1
    37   20   41 1
    38   21   26 1
    39   21   22 2
    40   22   23 1
    41   22   42 1
    42   23   24 1
    43   23   43 1
    44   23   44 1
    45   24   25 1
    46   24   45 1
    47   24   46 1
    48   25   26 1
    49   25   47 1
    50   25   48 1
    51   26   49 1
    52   26   50 1
@<TRIPOS>MOLECULE
ZINC09144808
   81    83     0     0     0
SMALL
USER_CHARGES
4-[(4-dimethylaminophenyl)-(1-hexyl-5-hydroxy-3-methyl-pyrazol-4-yl)-methyl]-2-hexyl-5-methyl-pyrazol-3-ol
@<TRIPOS>ATOM
      1 C1          5.9448    6.4941    0.4318 C.3       1 <0>        -0.1545
      2 C2          5.0120    5.3908   -0.0718 C.3       1 <0>        -0.1256
      3 C3          4.3263    4.7194    1.1198 C.3       1 <0>        -0.1191
      4 C4          3.3935    3.6162    0.6161 C.3       1 <0>        -0.1170
      5 C5          2.7077    2.9448    1.8077 C.3       1 <0>        -0.1326
      6 C6          1.7750    1.8415    1.3041 C.3       1 <0>         0.1324
      7 N1          1.1183    1.1986    2.4450 N.pl3     1 <0>        -0.3768
      8 C7          1.5777    0.1251    3.1253 C.2       1 <0>         0.2718
      9 C8          0.6806   -0.1538    4.1080 C.2       1 <0>        -0.2266
     10 C9         -0.3603    0.7750    4.0139 C.2       1 <0>         0.1055
     11 N2         -0.0995    1.5843    3.0195 N.2       1 <0>        -0.2843
     12 C10        -1.5739    0.8342    4.9053 C.3       1 <0>        -0.0682
     13 C11         0.7863   -1.2693    5.1157 C.3       1 <0>         0.1241
     14 C12         1.6273   -2.3826    4.5463 C.ar      1 <0>        -0.1131
     15 C13         1.3524   -2.8791    3.2853 C.ar      1 <0>        -0.0517
     16 C14         2.1247   -3.8955    2.7581 C.ar      1 <0>        -0.1975
     17 C15         3.1714   -4.4269    3.5008 C.ar      1 <0>         0.2116
     18 C16         3.4412   -3.9297    4.7695 C.ar      1 <0>        -0.1977
     19 C17         2.6686   -2.9094    5.2883 C.ar      1 <0>        -0.0693
     20 N3          3.9512   -5.4585    2.9729 N.pl3     1 <0>        -0.6416
     21 C18         4.9614   -6.1137    3.8073 C.3       1 <0>         0.0942
     22 C19         3.7587   -5.8852    1.5847 C.3       1 <0>         0.0911
     23 C20        -0.5911   -1.7920    5.4329 C.2       1 <0>        -0.2188
     24 C21        -1.1415   -1.9412    6.7095 C.2       1 <0>         0.0879
     25 N4         -2.3518   -2.4211    6.5811 N.2       1 <0>        -0.2770
     26 N5         -2.6148   -2.5944    5.2162 N.pl3     1 <0>        -0.3792
     27 C22        -1.5218   -2.1967    4.5283 C.2       1 <0>         0.2772
     28 O1         -1.3780   -2.2028    3.1783 O.3       1 <0>        -0.4569
     29 C23        -3.8574   -3.1102    4.6366 C.3       1 <0>         0.1331
     30 C24        -4.8150   -1.9479    4.3662 C.3       1 <0>        -0.1341
     31 C25        -6.1128   -2.4866    3.7609 C.3       1 <0>        -0.1162
     32 C26        -7.0703   -1.3243    3.4904 C.3       1 <0>        -0.1194
     33 C27        -8.3681   -1.8630    2.8851 C.3       1 <0>        -0.1251
     34 C28        -9.3256   -0.7008    2.6146 C.3       1 <0>        -0.1545
     35 C29        -0.4576   -1.6075    8.0102 C.3       1 <0>        -0.0772
     36 O2          2.7282   -0.5505    2.8747 O.3       1 <0>        -0.4549
     37 H1          5.3663    7.2354    0.9831 H         1 <0>         0.0538
     38 H2          6.6992    6.0605    1.0882 H         1 <0>         0.0534
     39 H3          6.4334    6.9724   -0.4171 H         1 <0>         0.0542
     40 H4          5.5905    4.6495   -0.6231 H         1 <0>         0.0610
     41 H5          4.2576    5.8245   -0.7282 H         1 <0>         0.0614
     42 H6          3.7477    5.4607    1.6710 H         1 <0>         0.0624
     43 H7          5.0807    4.2858    1.7762 H         1 <0>         0.0614
     44 H8          3.9720    2.8749    0.0649 H         1 <0>         0.0651
     45 H9          2.6391    4.0498   -0.0403 H         1 <0>         0.0664
     46 H10         3.4622    2.5111    2.4641 H         1 <0>         0.0637
     47 H11         2.1292    3.6861    2.3590 H         1 <0>         0.0723
     48 H12         1.0205    2.2751    0.6476 H         1 <0>         0.0926
     49 H13         2.3535    1.1002    0.7528 H         1 <0>         0.0920
     50 H14        -2.3682    0.2216    4.4788 H         1 <0>         0.0694
     51 H15        -1.3163    0.4576    5.8952 H         1 <0>         0.0783
     52 H16        -1.9149    1.8663    4.9866 H         1 <0>         0.0650
     53 H17         1.2508   -0.8928    6.0271 H         1 <0>         0.0843
     54 H18         0.5355   -2.4687    2.7103 H         1 <0>         0.1235
     55 H19         1.9122   -4.2797    1.7714 H         1 <0>         0.1153
     56 H20         4.2545   -4.3404    5.3494 H         1 <0>         0.1176
     57 H21         2.8780   -2.5221    6.2745 H         1 <0>         0.1166
     58 H22         4.5122   -6.9628    4.3224 H         1 <0>         0.0460
     59 H23         5.7812   -6.4621    3.1791 H         1 <0>         0.0638
     60 H24         5.3425   -5.4037    4.5413 H         1 <0>         0.0685
     61 H25         3.0286   -5.2352    1.1026 H         1 <0>         0.0764
     62 H26         4.7073   -5.8247    1.0512 H         1 <0>         0.0536
     63 H27         3.3971   -6.9134    1.5675 H         1 <0>         0.0493
     64 H28        -1.1023   -3.0559    2.8160 H         1 <0>         0.3888
     65 H29        -3.6362   -3.6239    3.7011 H         1 <0>         0.0870
     66 H30        -4.3211   -3.8083    5.3337 H         1 <0>         0.0949
     67 H31        -5.0362   -1.4342    5.3017 H         1 <0>         0.0731
     68 H32        -4.3513   -1.2498    3.6692 H         1 <0>         0.0697
     69 H33        -5.8915   -3.0003    2.8253 H         1 <0>         0.0639
     70 H34        -6.5764   -3.1847    4.4579 H         1 <0>         0.0657
     71 H35        -7.2916   -0.8106    4.4259 H         1 <0>         0.0628
     72 H36        -6.6066   -0.6263    2.7934 H         1 <0>         0.0621
     73 H37        -8.1469   -2.3768    1.9495 H         1 <0>         0.0605
     74 H38        -8.8318   -2.5611    3.5821 H         1 <0>         0.0611
     75 H39       -10.2502   -1.0845    2.1834 H         1 <0>         0.0539
     76 H40        -9.5469   -0.1870    3.5501 H         1 <0>         0.0539
     77 H41        -8.8620   -0.0027    1.9176 H         1 <0>         0.0536
     78 H42        -0.6659   -0.5708    8.2747 H         1 <0>         0.0784
     79 H43        -0.8302   -2.2648    8.7958 H         1 <0>         0.0744
     80 H44         0.6181   -1.7454    7.9010 H         1 <0>         0.0780
     81 H45         3.4799   -0.2588    3.4085 H         1 <0>         0.3907
@<TRIPOS>BOND
     1    1    2 1
     2    1   37 1
     3    1   38 1
     4    1   39 1
     5    2    3 1
     6    2   40 1
     7    2   41 1
     8    3    4 1
     9    3   42 1
    10    3   43 1
    11    4    5 1
    12    4   44 1
    13    4   45 1
    14    5    6 1
    15    5   46 1
    16    5   47 1
    17    6    7 1
    18    6   48 1
    19    6   49 1
    20    7   11 1
    21    7    8 1
    22    8    9 2
    23    8   36 1
    24    9   10 1
    25    9   13 1
    26   10   11 2
    27   10   12 1
    28   12   50 1
    29   12   51 1
    30   12   52 1
    31   13   14 1
    32   13   23 1
    33   13   53 1
    34   14   19 ar
    35   14   15 ar
    36   15   16 ar
    37   15   54 1
    38   16   17 ar
    39   16   55 1
    40   17   18 ar
    41   17   20 1
    42   18   19 ar
    43   18   56 1
    44   19   57 1
    45   20   21 1
    46   20   22 1
    47   21   58 1
    48   21   59 1
    49   21   60 1
    50   22   61 1
    51   22   62 1
    52   22   63 1
    53   23   27 2
    54   23   24 1
    55   24   25 2
    56   24   35 1
    57   25   26 1
    58   26   27 1
    59   26   29 1
    60   27   28 1
    61   28   64 1
    62   29   30 1
    63   29   65 1
    64   29   66 1
    65   30   31 1
    66   30   67 1
    67   30   68 1
    68   31   32 1
    69   31   69 1
    70   31   70 1
    71   32   33 1
    72   32   71 1
    73   32   72 1
    74   33   34 1
    75   33   73 1
    76   33   74 1
    77   34   75 1
    78   34   76 1
    79   34   77 1
    80   35   78 1
    81   35   79 1
    82   35   80 1
    83   36   81 1
@<TRIPOS>MOLECULE
ZINC29566975
   77    80     0     0     0
SMALL
USER_CHARGES
(Z)-7-[4-[4-(4-cyclohexylbutylcarbamoyl)oxazol-2-yl]phenyl]-7-(3-pyridyl)hept-6-enoic acid
@<TRIPOS>ATOM
      1 C1         -5.7856   10.9016   -2.9393 C.ar      1 <0>        -0.1669
      2 C2         -6.0113   10.0507   -1.8707 C.ar      1 <0>        -0.0592
      3 C3         -4.9197    9.6681   -1.0861 C.ar      1 <0>        -0.0839
      4 C4         -3.6527   10.1472   -1.4146 C.ar      1 <0>         0.1056
      5 N1         -3.4863   10.9510   -2.4447 N.ar      1 <0>        -0.4839
      6 C5         -4.4981   11.3331   -3.2002 C.ar      1 <0>         0.0946
      7 C6         -5.1057    8.7623    0.0735 C.2       1 <0>        -0.0904
      8 C7         -5.8229    9.1657    1.1299 C.2       1 <0>        -0.0866
      9 C8         -6.4411   10.5400    1.1406 C.3       1 <0>        -0.1062
     10 C9         -7.9447   10.4209    1.3968 C.3       1 <0>        -0.1127
     11 C10        -8.5724   11.8162    1.4076 C.3       1 <0>        -0.0987
     12 C11       -10.0761   11.6970    1.6637 C.3       1 <0>        -0.1579
     13 C12       -10.6943   13.0713    1.6745 C.2       1 <0>         0.4567
     14 O1        -10.0031   14.0461    1.4956 O.co2     1 <0>        -0.6421
     15 O2        -12.0128   13.2126    1.8827 O.co2     1 <0>        -0.7789
     16 C13        -4.4978    7.4110    0.0629 C.ar      1 <0>        -0.0048
     17 C14        -5.3141    6.2792    0.0597 C.ar      1 <0>        -0.1081
     18 C15        -4.7501    5.0234    0.0499 C.ar      1 <0>        -0.0812
     19 C16        -3.3604    4.8824    0.0432 C.ar      1 <0>        -0.0329
     20 C17        -2.5440    6.0157    0.0518 C.ar      1 <0>        -0.0631
     21 C18        -3.1094    7.2709    0.0558 C.ar      1 <0>        -0.1116
     22 C19        -2.7543    3.5349    0.0332 C.2       1 <0>         0.2522
     23 N2         -1.4701    3.2788    0.0264 N.2       1 <0>        -0.4551
     24 C20        -1.3014    1.9318    0.0187 C.2       1 <0>        -0.0685
     25 C21        -2.5420    1.3686    0.0160 C.2       1 <0>         0.0154
     26 O3         -3.4326    2.3735    0.0302 O.3       1 <0>        -0.1880
     27 C22        -0.0144    1.2119    0.0087 C.2       1 <0>         0.6047
     28 O4          0.0021   -0.0041    0.0020 O.2       1 <0>        -0.5414
     29 N3          1.1435    1.9016    0.0014 N.am      1 <0>        -0.7245
     30 C23         2.4220    1.1864   -0.0147 C.3       1 <0>         0.1205
     31 C24         3.5712    2.1964   -0.0202 C.3       1 <0>        -0.1318
     32 C25         4.9065    1.4495   -0.0370 C.3       1 <0>        -0.1180
     33 C26         6.0557    2.4595   -0.0426 C.3       1 <0>        -0.1151
     34 C27         7.3909    1.7126   -0.0593 C.3       1 <0>        -0.0871
     35 C28         7.5509    0.9246    1.2424 C.3       1 <0>        -0.1169
     36 C29         8.8861    0.1777    1.2256 C.3       1 <0>        -0.1216
     37 C30        10.0315    1.1835    1.0943 C.3       1 <0>        -0.1211
     38 C31         9.8716    1.9716   -0.2073 C.3       1 <0>        -0.1210
     39 C32         8.5363    2.7184   -0.1906 C.3       1 <0>        -0.1158
     40 H1         -6.6057   11.2213   -3.5650 H         1 <0>         0.1379
     41 H2         -7.0061    9.6948   -1.6467 H         1 <0>         0.1371
     42 H3         -2.7996    9.8564   -0.8195 H         1 <0>         0.1520
     43 H4         -4.3178   11.9930   -4.0359 H         1 <0>         0.1549
     44 H5         -5.9608    8.4939    1.9899 H         1 <0>         0.1247
     45 H6         -5.9802   11.1432    1.9367 H         1 <0>         0.0797
     46 H7         -6.2722   11.0256    0.1682 H         1 <0>         0.0748
     47 H8         -8.4056    9.8177    0.6008 H         1 <0>         0.0578
     48 H9         -8.1136    9.9353    2.3693 H         1 <0>         0.0606
     49 H10        -8.1115   12.4194    2.2037 H         1 <0>         0.0605
     50 H11        -8.4034   12.3018    0.4352 H         1 <0>         0.0594
     51 H12       -10.5369   11.0939    0.8675 H         1 <0>         0.0614
     52 H13       -10.2451   11.2113    2.6361 H         1 <0>         0.0620
     53 H14        -6.3885    6.3884    0.0645 H         1 <0>         0.1352
     54 H15        -5.3819    4.1475    0.0478 H         1 <0>         0.1333
     55 H16        -1.4694    5.9074    0.0508 H         1 <0>         0.1395
     56 H17        -2.4783    8.1473    0.0579 H         1 <0>         0.1338
     57 H18        -2.7669    0.3123    0.0067 H         1 <0>         0.2324
     58 H19         1.1286    3.0015    0.0075 H         1 <0>         0.4332
     59 H20         2.4974    0.5500    0.8793 H         1 <0>         0.0678
     60 H21         2.4802    0.5597   -0.9168 H         1 <0>         0.0678
     61 H22         3.4957    2.8328   -0.9142 H         1 <0>         0.0708
     62 H23         3.5129    2.8231    0.8819 H         1 <0>         0.0710
     63 H24         4.9819    0.8131    0.8571 H         1 <0>         0.0681
     64 H25         4.9648    0.8227   -0.9391 H         1 <0>         0.0649
     65 H26         5.9802    3.0958   -0.9367 H         1 <0>         0.0630
     66 H27         5.9974    3.0863    0.8595 H         1 <0>         0.0631
     67 H28         7.4123    1.0190   -0.9128 H         1 <0>         0.0692
     68 H29         7.5295    1.6182    2.0959 H         1 <0>         0.0611
     69 H30         6.7274    0.2015    1.3369 H         1 <0>         0.0642
     70 H31         9.0011   -0.3888    2.1614 H         1 <0>         0.0601
     71 H32         8.9076   -0.5159    0.3721 H         1 <0>         0.0606
     72 H33        10.0101    1.8770    1.9478 H         1 <0>         0.0608
     73 H34        10.9915    0.6465    1.0822 H         1 <0>         0.0592
     74 H35        10.6950    2.6948   -0.3015 H         1 <0>         0.0602
     75 H36         9.8932    1.2781   -1.0609 H         1 <0>         0.0606
     76 H37         8.4213    3.2849   -1.1265 H         1 <0>         0.0609
     77 H38         8.5148    3.4121    0.6629 H         1 <0>         0.0615
@<TRIPOS>BOND
     1    1    6 ar
     2    1    2 ar
     3    1   40 1
     4    2    3 ar
     5    2   41 1
     6    3    4 ar
     7    3    7 1
     8    4    5 ar
     9    4   42 1
    10    5    6 ar
    11    6   43 1
    12    7    8 2
    13    7   16 1
    14    8    9 1
    15    8   44 1
    16    9   10 1
    17    9   45 1
    18    9   46 1
    19   10   11 1
    20   10   47 1
    21   10   48 1
    22   11   12 1
    23   11   49 1
    24   11   50 1
    25   12   13 1
    26   12   51 1
    27   12   52 1
    28   13   14 2
    29   13   15 1
    30   16   21 ar
    31   16   17 ar
    32   17   18 ar
    33   17   53 1
    34   18   19 ar
    35   18   54 1
    36   19   20 ar
    37   19   22 1
    38   20   21 ar
    39   20   55 1
    40   21   56 1
    41   22   26 1
    42   22   23 2
    43   23   24 1
    44   24   25 2
    45   24   27 1
    46   25   26 1
    47   25   57 1
    48   27   28 2
    49   27   29 am
    50   29   30 1
    51   29   58 1
    52   30   31 1
    53   30   59 1
    54   30   60 1
    55   31   32 1
    56   31   61 1
    57   31   62 1
    58   32   33 1
    59   32   63 1
    60   32   64 1
    61   33   34 1
    62   33   65 1
    63   33   66 1
    64   34   39 1
    65   34   35 1
    66   34   67 1
    67   35   36 1
    68   35   68 1
    69   35   69 1
    70   36   37 1
    71   36   70 1
    72   36   71 1
    73   37   38 1
    74   37   72 1
    75   37   73 1
    76   38   39 1
    77   38   74 1
    78   38   75 1
    79   39   76 1
    80   39   77 1
@<TRIPOS>MOLECULE
ZINC36510670
   80    81     0     0     0
SMALL
USER_CHARGES

@<TRIPOS>ATOM
      1 C1          5.5585   -0.3961    0.8863 C.3       1 <0>        -0.1537
      2 C2          4.2455   -1.0086    0.3947 C.3       1 <0>        -0.1243
      3 C3          4.4630   -1.6464   -0.9789 C.3       1 <0>        -0.1186
      4 C4          3.1499   -2.2589   -1.4705 C.3       1 <0>        -0.1151
      5 C5          3.3674   -2.8966   -2.8441 C.3       1 <0>        -0.1430
      6 C6          2.0544   -3.5092   -3.3357 C.3       1 <0>         0.0679
      7 N1          2.2861   -4.2104   -4.6009 N.am      1 <0>        -0.5977
      8 C7          2.9038   -5.5388   -4.5997 C.3       1 <0>         0.1696
      9 H1          2.1943   -6.2697   -4.9876 H         1 <0>         0.1202
     10 C8          4.1339   -5.5216   -5.4702 C.ar      1 <0>        -0.0465
     11 C9          5.0549   -4.4985   -5.3451 C.ar      1 <0>        -0.1083
     12 C10         6.1832   -4.4827   -6.1436 C.ar      1 <0>        -0.0513
     13 C11         6.3906   -5.4904   -7.0669 C.ar      1 <0>        -0.0420
     14 C12         5.4700   -6.5140   -7.1914 C.ar      1 <0>        -0.0483
     15 C13         4.3439   -6.5321   -6.3899 C.ar      1 <0>        -0.0910
     16 N2          7.5983   -5.4730   -7.9226 N.pl3     1 <0>         0.0322
     17 O1          8.4033   -4.5775   -7.8140 O.2       1 <0>        -0.1563
     18 O2          7.7797   -6.3543   -8.7301 O.3       1 <0>        -0.1546
     19 C14         3.2901   -5.9119   -3.1916 C.2       1 <0>         0.5217
     20 O3          2.4634   -5.8717   -2.3052 O.2       1 <0>        -0.5120
     21 N3          4.5543   -6.2902   -2.9174 N.am      1 <0>        -0.7170
     22 C15         4.9298   -6.6529   -1.5486 C.3       1 <0>         0.1441
     23 C16         5.2946   -5.3886   -0.7679 C.3       1 <0>        -0.1295
     24 C17         5.6867   -5.7674    0.6617 C.3       1 <0>        -0.1160
     25 C18         6.8908   -6.7108    0.6272 C.3       1 <0>        -0.1232
     26 C19         6.5260   -7.9750   -0.1535 C.3       1 <0>        -0.1155
     27 C20         6.1339   -7.5962   -1.5831 C.3       1 <0>        -0.1280
     28 C21         1.9311   -3.6334   -5.7660 C.2       1 <0>         0.5281
     29 O4          2.1886   -4.1809   -6.8171 O.2       1 <0>        -0.5214
     30 C22         1.2142   -2.3078   -5.7627 C.3       1 <0>        -0.1065
     31 H2          1.4789   -1.7538   -4.8621 H         1 <0>         0.0942
     32 C23        -0.2970   -2.5452   -5.7898 C.3       1 <0>        -0.1137
     33 C24        -0.7272   -3.2413   -4.4970 C.3       1 <0>        -0.1635
     34 C25         1.6261   -1.5021   -6.9965 C.3       1 <0>        -0.1096
     35 C26         3.0412   -0.9550   -6.7992 C.3       1 <0>        -0.1184
     36 C27         3.4208   -0.0794   -7.9951 C.3       1 <0>        -0.1236
     37 C28         4.8360    0.4677   -7.7978 C.3       1 <0>        -0.1530
     38 H3          6.3166   -1.1755    0.9635 H         1 <0>         0.0528
     39 H4          5.8908    0.3653    0.1807 H         1 <0>         0.0530
     40 H5          5.4036    0.0582    1.8649 H         1 <0>         0.0538
     41 H6          3.9131   -1.7701    1.1003 H         1 <0>         0.0610
     42 H7          3.4874   -0.2292    0.3175 H         1 <0>         0.0607
     43 H8          4.7953   -0.8849   -1.6845 H         1 <0>         0.0600
     44 H9          5.2210   -2.4258   -0.9017 H         1 <0>         0.0609
     45 H10         2.8176   -3.0203   -0.7649 H         1 <0>         0.0676
     46 H11         2.3919   -1.4795   -1.5477 H         1 <0>         0.0643
     47 H12         3.6998   -2.1352   -3.5497 H         1 <0>         0.0634
     48 H13         4.1255   -3.6761   -2.7669 H         1 <0>         0.0655
     49 H14         1.6817   -4.2141   -2.5926 H         1 <0>         0.1179
     50 H15         1.3192   -2.7189   -3.4876 H         1 <0>         0.0968
     51 H16         4.8928   -3.7112   -4.6238 H         1 <0>         0.1455
     52 H17         6.9025   -3.6830   -6.0464 H         1 <0>         0.1540
     53 H18         5.6319   -7.3011   -7.9130 H         1 <0>         0.1570
     54 H19         3.6265   -7.3338   -6.4845 H         1 <0>         0.1490
     55 H20         5.2155   -6.3223   -3.6264 H         1 <0>         0.3998
     56 H21         4.0915   -7.1513   -1.0619 H         1 <0>         0.0926
     57 H22         6.1329   -4.8902   -1.2546 H         1 <0>         0.0627
     58 H23         4.4368   -4.7166   -0.7434 H         1 <0>         0.0730
     59 H24         5.9466   -4.8668    1.2179 H         1 <0>         0.0663
     60 H25         4.8485   -6.2659    1.1484 H         1 <0>         0.0648
     61 H26         7.7291   -6.2123    0.1405 H         1 <0>         0.0626
     62 H27         7.1702   -6.9806    1.6457 H         1 <0>         0.0654
     63 H28         7.3838   -8.6471   -0.1780 H         1 <0>         0.0686
     64 H29         5.6877   -8.4735    0.3333 H         1 <0>         0.0662
     65 H30         5.8740   -8.4969   -2.1393 H         1 <0>         0.0691
     66 H31         6.9721   -7.0978   -2.0698 H         1 <0>         0.0672
     67 H32        -0.8135   -1.5893   -5.8770 H         1 <0>         0.0785
     68 H33        -0.5507   -3.1744   -6.6430 H         1 <0>         0.0709
     69 H34        -1.8038   -3.4104   -4.5163 H         1 <0>         0.0613
     70 H35        -0.2107   -4.1972   -4.4098 H         1 <0>         0.0584
     71 H36        -0.4735   -2.6121   -3.6439 H         1 <0>         0.0597
     72 H37         1.6051   -2.1469   -7.8751 H         1 <0>         0.0791
     73 H38         0.9324   -0.6733   -7.1374 H         1 <0>         0.0736
     74 H39         3.0766   -0.3593   -5.8870 H         1 <0>         0.0602
     75 H40         3.7436   -1.7846   -6.7188 H         1 <0>         0.0570
     76 H41         3.3855   -0.6751   -8.9073 H         1 <0>         0.0611
     77 H42         2.7184    0.7502   -8.0755 H         1 <0>         0.0621
     78 H43         5.1064    1.0915   -8.6498 H         1 <0>         0.0548
     79 H44         4.8713    1.0634   -6.8857 H         1 <0>         0.0532
     80 H45         5.5384   -0.3619   -7.7174 H         1 <0>         0.0519
@<TRIPOS>BOND
     1    1    2 1
     2    1   38 1
     3    1   39 1
     4    1   40 1
     5    2    3 1
     6    2   41 1
     7    2   42 1
     8    3    4 1
     9    3   43 1
    10    3   44 1
    11    4    5 1
    12    4   45 1
    13    4   46 1
    14    5    6 1
    15    5   47 1
    16    5   48 1
    17    6    7 1
    18    6   49 1
    19    6   50 1
    20    7    8 1
    21    7   28 am
    22    8    9 1
    23    8   10 1
    24    8   19 1
    25   10   15 ar
    26   10   11 ar
    27   11   12 ar
    28   11   51 1
    29   12   13 ar
    30   12   52 1
    31   13   14 ar
    32   13   16 1
    33   14   15 ar
    34   14   53 1
    35   15   54 1
    36   16   17 2
    37   16   18 1
    38   19   20 2
    39   19   21 am
    40   21   22 1
    41   21   55 1
    42   22   27 1
    43   22   23 1
    44   22   56 1
    45   23   24 1
    46   23   57 1
    47   23   58 1
    48   24   25 1
    49   24   59 1
    50   24   60 1
    51   25   26 1
    52   25   61 1
    53   25   62 1
    54   26   27 1
    55   26   63 1
    56   26   64 1
    57   27   65 1
    58   27   66 1
    59   28   29 2
    60   28   30 1
    61   30   31 1
    62   30   32 1
    63   30   34 1
    64   32   33 1
    65   32   67 1
    66   32   68 1
    67   33   69 1
    68   33   70 1
    69   33   71 1
    70   34   35 1
    71   34   72 1
    72   34   73 1
    73   35   36 1
    74   35   74 1
    75   35   75 1
    76   36   37 1
    77   36   76 1
    78   36   77 1
    79   37   78 1
    80   37   79 1
    81   37   80 1
@<TRIPOS>MOLECULE
ZINC36582088
   76    76     0     0     0
SMALL
USER_CHARGES

@<TRIPOS>ATOM
      1 C1         -2.0405   -2.0907   -1.0547 C.3       1 <0>        -0.1541
      2 C2         -1.5684   -3.4874   -0.6456 C.3       1 <0>        -0.1253
      3 C3         -0.5527   -3.3693    0.4926 C.3       1 <0>        -0.1187
      4 C4         -0.0806   -4.7660    0.9016 C.3       1 <0>        -0.1151
      5 C5          0.9351   -4.6479    2.0398 C.3       1 <0>        -0.1235
      6 C6          1.4001   -6.0236    2.4428 C.2       1 <0>        -0.0519
      7 C7          2.7008   -6.2861    2.5322 C.2       1 <0>        -0.2439
      8 C8          3.6701   -5.1825    2.6129 C.2       1 <0>         0.5561
      9 O1          3.2788   -4.0366    2.7254 O.2       1 <0>        -0.5368
     10 N1          4.9918   -5.4414    2.5622 N.am      1 <0>        -0.5794
     11 C9          5.9555   -4.3382    2.5816 C.3       1 <0>         0.1626
     12 H1          5.4241   -3.3935    2.6964 H         1 <0>         0.1385
     13 C10         6.7301   -4.3250    1.2890 C.2       1 <0>        -0.1904
     14 C11         6.2928   -5.0024    0.2565 C.2       1 <0>        -0.1245
     15 C12         7.1373   -5.1091   -0.9871 C.3       1 <0>        -0.0954
     16 C13         7.3426   -6.5838   -1.3392 C.3       1 <0>        -0.1225
     17 C14         8.1999   -6.6921   -2.6018 C.3       1 <0>        -0.1535
     18 C15         6.9071   -4.5227    3.7356 C.2       1 <0>         0.5171
     19 O2          6.7261   -5.4178    4.5336 O.2       1 <0>        -0.4962
     20 N2          7.9592   -3.6929    3.8807 N.am      1 <0>        -0.7044
     21 C16         8.8843   -3.8723    5.0024 C.3       1 <0>        -0.3621
     22 S1         10.2994   -4.8720    4.4653 S.o2      1 <0>         2.4696
     23 O3         11.2371   -5.0021    5.5250 O.2       1 <0>        -0.9323
     24 O4          9.8484   -6.0157    3.7527 O.2       1 <0>        -0.9139
     25 C17        11.1193   -3.8845    3.2581 C.ar      1 <0>        -0.6654
     26 C18        10.7637   -3.9845    1.9260 C.ar      1 <0>        -0.0177
     27 C19        11.4069   -3.2097    0.9790 C.ar      1 <0>        -0.1409
     28 C20        12.4054   -2.3347    1.3640 C.ar      1 <0>        -0.0266
     29 C21        12.7604   -2.2341    2.6962 C.ar      1 <0>        -0.1400
     30 C22        12.1142   -3.0057    3.6439 C.ar      1 <0>        -0.0201
     31 C23        13.1073   -1.4909    0.3314 C.3       1 <0>        -0.1275
     32 C24         5.4647   -6.8259    2.4878 C.3       1 <0>         0.1748
     33 C25         4.8966   -7.4921    1.2331 C.3       1 <0>        -0.1950
     34 C26         6.9934   -6.8401    2.4250 C.3       1 <0>        -0.2118
     35 C27         4.9981   -7.5916    3.7275 C.3       1 <0>        -0.1766
     36 H2         -1.1865   -1.5020   -1.3894 H         1 <0>         0.0533
     37 H3         -2.7641   -2.1748   -1.8656 H         1 <0>         0.0531
     38 H4         -2.5075   -1.6004   -0.2005 H         1 <0>         0.0535
     39 H5         -2.4224   -4.0761   -0.3109 H         1 <0>         0.0602
     40 H6         -1.1014   -3.9777   -1.4998 H         1 <0>         0.0598
     41 H7          0.3013   -2.7806    0.1578 H         1 <0>         0.0620
     42 H8         -1.0197   -2.8790    1.3468 H         1 <0>         0.0617
     43 H9         -0.9346   -5.3547    1.2364 H         1 <0>         0.0596
     44 H10         0.3864   -5.2563    0.0475 H         1 <0>         0.0598
     45 H11         1.7891   -4.0592    1.7051 H         1 <0>         0.1091
     46 H12         0.4681   -4.1576    2.8940 H         1 <0>         0.0771
     47 H13         0.6772   -6.7963    2.6589 H         1 <0>         0.1248
     48 H14         3.0455   -7.3096    2.5454 H         1 <0>         0.1494
     49 H15         7.6457   -3.7572    1.2138 H         1 <0>         0.1244
     50 H16         5.3272   -5.4844    0.2965 H         1 <0>         0.1295
     51 H17         6.6341   -4.6052   -1.8123 H         1 <0>         0.0750
     52 H18         8.1050   -4.6396   -0.8106 H         1 <0>         0.0679
     53 H19         7.8458   -7.0877   -0.5140 H         1 <0>         0.0676
     54 H20         6.3749   -7.0534   -1.5158 H         1 <0>         0.0640
     55 H21         7.6967   -6.1882   -3.4270 H         1 <0>         0.0539
     56 H22         9.1676   -6.2226   -2.4253 H         1 <0>         0.0539
     57 H23         8.3462   -7.7428   -2.8527 H         1 <0>         0.0560
     58 H24         8.1040   -2.9770    3.2424 H         1 <0>         0.4138
     59 H25         9.2358   -2.8983    5.3428 H         1 <0>         0.1457
     60 H26         8.3706   -4.3790    5.8195 H         1 <0>         0.1565
     61 H27         9.9836   -4.6681    1.6252 H         1 <0>         0.1402
     62 H28        11.1296   -3.2884   -0.0619 H         1 <0>         0.1330
     63 H29        13.5407   -1.5508    2.9970 H         1 <0>         0.1338
     64 H30        12.3889   -2.9244    4.6852 H         1 <0>         0.1415
     65 H31        12.5767   -0.5462    0.2126 H         1 <0>         0.0807
     66 H32        14.1294   -1.2953    0.6557 H         1 <0>         0.0739
     67 H33        13.1234   -2.0208   -0.6209 H         1 <0>         0.0737
     68 H34         5.3748   -7.0698    0.3493 H         1 <0>         0.0743
     69 H35         5.0883   -8.5644    1.2725 H         1 <0>         0.0707
     70 H36         3.8219   -7.3168    1.1835 H         1 <0>         0.0748
     71 H37         7.3990   -6.4568    3.3613 H         1 <0>         0.1084
     72 H38         7.3412   -7.8613    2.2694 H         1 <0>         0.0622
     73 H39         7.3289   -6.2122    1.5997 H         1 <0>         0.0786
     74 H40         3.9183   -7.4872    3.8340 H         1 <0>         0.0651
     75 H41         5.2523   -8.6461    3.6203 H         1 <0>         0.0634
     76 H42         5.4912   -7.1871    4.6114 H         1 <0>         0.0813
@<TRIPOS>BOND
     1    1    2 1
     2    1   36 1
     3    1   37 1
     4    1   38 1
     5    2    3 1
     6    2   39 1
     7    2   40 1
     8    3    4 1
     9    3   41 1
    10    3   42 1
    11    4    5 1
    12    4   43 1
    13    4   44 1
    14    5    6 1
    15    5   45 1
    16    5   46 1
    17    6    7 2
    18    6   47 1
    19    7    8 1
    20    7   48 1
    21    8    9 2
    22    8   10 am
    23   10   11 1
    24   10   32 1
    25   11   12 1
    26   11   13 1
    27   11   18 1
    28   13   14 2
    29   13   49 1
    30   14   15 1
    31   14   50 1
    32   15   16 1
    33   15   51 1
    34   15   52 1
    35   16   17 1
    36   16   53 1
    37   16   54 1
    38   17   55 1
    39   17   56 1
    40   17   57 1
    41   18   19 2
    42   18   20 am
    43   20   21 1
    44   20   58 1
    45   21   22 1
    46   21   59 1
    47   21   60 1
    48   22   23 2
    49   22   24 2
    50   22   25 1
    51   25   30 ar
    52   25   26 ar
    53   26   27 ar
    54   26   61 1
    55   27   28 ar
    56   27   62 1
    57   28   29 ar
    58   28   31 1
    59   29   30 ar
    60   29   63 1
    61   30   64 1
    62   31   65 1
    63   31   66 1
    64   31   67 1
    65   32   33 1
    66   32   34 1
    67   32   35 1
    68   33   68 1
    69   33   69 1
    70   33   70 1
    71   34   71 1
    72   34   72 1
    73   34   73 1
    74   35   74 1
    75   35   75 1
    76   35   76 1
@<TRIPOS>MOLECULE
ZINC41000725
   68    70     0     0     0
SMALL
USER_CHARGES

@<TRIPOS>ATOM
      1 C1          0.9130    1.3059   -1.2087 C.3       1 <0>        -0.1527
      2 C2          0.8185   -0.2129   -1.0495 C.3       1 <0>        -0.1213
      3 C3          1.4276   -0.6239    0.2925 C.3       1 <0>        -0.1192
      4 C4          1.3330   -2.1427    0.4516 C.3       1 <0>         0.0568
      5 O1          1.9019   -2.5266    1.7050 O.3       1 <0>        -0.3012
      6 C5          1.8977   -3.8532    2.0045 C.ar      1 <0>         0.1196
      7 C6          1.3631   -4.7655    1.1090 C.ar      1 <0>        -0.1722
      8 C7          1.3601   -6.1136    1.4147 C.ar      1 <0>        -0.0782
      9 C8          1.8892   -6.5550    2.6133 C.ar      1 <0>        -0.1084
     10 C9          2.4237   -5.6500    3.5114 C.ar      1 <0>        -0.1448
     11 C10         2.4355   -4.2979    3.2084 C.ar      1 <0>         0.1027
     12 O2          2.9664   -3.4070    4.0881 O.3       1 <0>        -0.3028
     13 C11         3.5004   -3.9353    5.3037 C.3       1 <0>         0.0240
     14 C12         1.8829   -8.0257    2.9418 C.3       1 <0>         0.2890
     15 H1          2.3377   -8.1816    3.9201 H         1 <0>         0.1125
     16 C13         0.4644   -8.5295    2.9617 C.2       1 <0>        -0.2764
     17 C14        -0.0446   -9.3224    2.0060 C.2       1 <0>         0.2299
     18 N1          0.7003   -9.7462    0.9341 N.pl3     1 <0>        -0.6081
     19 C15         2.0736   -9.5520    0.9934 C.2       1 <0>         0.5050
     20 N2          2.6434   -8.7540    1.9297 N.pl3     1 <0>        -0.3793
     21 N3          4.0187   -8.7941    1.7057 N.2       1 <0>        -0.2616
     22 C16         4.2110   -9.5858    0.6725 C.2       1 <0>         0.2184
     23 N4          3.0243  -10.0413    0.2446 N.2       1 <0>        -0.5434
     24 S1          5.7751   -9.9834   -0.0348 S.3       1 <0>         0.0182
     25 C17         5.3662  -11.1000   -1.4046 C.3       1 <0>        -0.1055
     26 C18         6.6519  -11.5280   -2.1149 C.3       1 <0>        -0.1067
     27 C19         6.3071  -12.4698   -3.2703 C.3       1 <0>        -0.1168
     28 C20         7.5929  -12.8978   -3.9806 C.3       1 <0>        -0.1539
     29 C21        -1.4820   -9.7624    2.1136 C.3       1 <0>        -0.1346
     30 C22        -0.3698   -8.1502    4.0369 C.2       1 <0>         0.5450
     31 O3         -0.2163   -8.6551    5.1336 O.2       1 <0>        -0.4919
     32 O4         -1.3370   -7.2280    3.8479 O.3       1 <0>        -0.3369
     33 C23        -2.1432   -6.8924    4.9790 C.3       1 <0>         0.0907
     34 C24        -3.1609   -5.8549    4.5803 C.2       1 <0>        -0.1596
     35 C25        -4.4083   -5.9811    4.9599 C.2       1 <0>        -0.1663
     36 H2          1.9592    1.6102   -1.1761 H         1 <0>         0.0564
     37 H3          0.4791    1.5987   -2.1648 H         1 <0>         0.0575
     38 H4          0.3682    1.7907   -0.3987 H         1 <0>         0.0563
     39 H5         -0.2277   -0.5172   -1.0822 H         1 <0>         0.0645
     40 H6          1.3633   -0.6977   -1.8596 H         1 <0>         0.0646
     41 H7          2.4737   -0.3196    0.3251 H         1 <0>         0.0749
     42 H8          0.8827   -0.1391    1.1025 H         1 <0>         0.0749
     43 H9          0.2869   -2.4470    0.4190 H         1 <0>         0.0623
     44 H10         1.8779   -2.6275   -0.3584 H         1 <0>         0.0617
     45 H11         0.9485   -4.4232    0.1723 H         1 <0>         0.1372
     46 H12         0.9431   -6.8237    0.7159 H         1 <0>         0.1167
     47 H13         2.8361   -5.9973    4.4472 H         1 <0>         0.1379
     48 H14         3.8907   -3.1204    5.9135 H         1 <0>         0.1033
     49 H15         2.7134   -4.4540    5.8512 H         1 <0>         0.0549
     50 H16         4.3045   -4.6344    5.0738 H         1 <0>         0.0569
     51 H17         0.2834  -10.1650    0.1648 H         1 <0>         0.4424
     52 H18         4.8556  -11.9809   -1.0154 H         1 <0>         0.0932
     53 H19         4.7150  -10.5852   -2.1111 H         1 <0>         0.0930
     54 H20         7.1625  -10.6471   -2.5042 H         1 <0>         0.0747
     55 H21         7.3031  -12.0429   -1.4085 H         1 <0>         0.0748
     56 H22         5.7965  -13.3507   -2.8811 H         1 <0>         0.0652
     57 H23         5.6559  -11.9550   -3.9767 H         1 <0>         0.0650
     58 H24         8.2440  -13.4127   -3.2742 H         1 <0>         0.0559
     59 H25         7.3472  -13.5688   -4.8037 H         1 <0>         0.0568
     60 H26         8.1034  -12.0169   -4.3698 H         1 <0>         0.0558
     61 H27        -2.1296   -8.9947    1.6902 H         1 <0>         0.1056
     62 H28        -1.6184  -10.6951    1.5663 H         1 <0>         0.0911
     63 H29        -1.7375   -9.9156    3.1621 H         1 <0>         0.0913
     64 H30        -2.6557   -7.7850    5.3376 H         1 <0>         0.0750
     65 H31        -1.5096   -6.4941    5.7714 H         1 <0>         0.0791
     66 H32        -2.8619   -5.0072    3.9815 H         1 <0>         0.1209
     67 H33        -5.1376   -5.2376    4.6742 H         1 <0>         0.1096
     68 H34        -4.7074   -6.8287    5.5587 H         1 <0>         0.1006
@<TRIPOS>BOND
     1    1    2 1
     2    1   36 1
     3    1   37 1
     4    1   38 1
     5    2    3 1
     6    2   39 1
     7    2   40 1
     8    3    4 1
     9    3   41 1
    10    3   42 1
    11    4    5 1
    12    4   43 1
    13    4   44 1
    14    5    6 1
    15    6   11 ar
    16    6    7 ar
    17    7    8 ar
    18    7   45 1
    19    8    9 ar
    20    8   46 1
    21    9   10 ar
    22    9   14 1
    23   10   11 ar
    24   10   47 1
    25   11   12 1
    26   12   13 1
    27   13   48 1
    28   13   49 1
    29   13   50 1
    30   14   15 1
    31   14   20 1
    32   14   16 1
    33   16   17 2
    34   16   30 1
    35   17   18 1
    36   17   29 1
    37   18   19 1
    38   18   51 1
    39   19   23 2
    40   19   20 1
    41   20   21 1
    42   21   22 2
    43   22   23 1
    44   22   24 1
    45   24   25 1
    46   25   26 1
    47   25   52 1
    48   25   53 1
    49   26   27 1
    50   26   54 1
    51   26   55 1
    52   27   28 1
    53   27   56 1
    54   27   57 1
    55   28   58 1
    56   28   59 1
    57   28   60 1
    58   29   61 1
    59   29   62 1
    60   29   63 1
    61   30   31 2
    62   30   32 1
    63   32   33 1
    64   33   34 1
    65   33   64 1
    66   33   65 1
    67   34   35 2
    68   34   66 1
    69   35   67 1
    70   35   68 1
@<TRIPOS>MOLECULE
ZINC03875151
   92    94     0     0     0
SMALL
USER_CHARGES
[2,5,7,8-tetramethyl-2-(4,8,12-trimethyltridecyl)chroman-6-yl] pyridine-3-carboxylate
@<TRIPOS>ATOM
      1 C1         -4.1065    2.9853   -2.2146 C.3       1 <0>        -0.1054
      2 C2         -2.6853    2.4902   -2.2921 C.ar      1 <0>        -0.1113
      3 C3         -2.0258    2.4823   -3.5039 C.ar      1 <0>        -0.0460
      4 C4         -0.7180    2.0260   -3.5764 C.ar      1 <0>         0.0453
      5 C5         -0.0788    1.5782   -2.4311 C.ar      1 <0>        -0.0451
      6 C6         -0.7402    1.5844   -1.2149 C.ar      1 <0>        -0.1533
      7 C7         -2.0444    2.0421   -1.1416 C.ar      1 <0>         0.1567
      8 O1         -2.7267    2.0742    0.0336 O.3       1 <0>        -0.2971
      9 C8         -2.2256    1.2913    1.1178 C.3       1 <0>         0.1179
     10 C9         -0.7273    1.5785    1.2688 C.3       1 <0>        -0.1485
     11 C10        -0.0127    1.0858    0.0080 C.3       1 <0>        -0.0768
     12 C11        -2.4383   -0.1947    0.8219 C.3       1 <0>        -0.1786
     13 C12        -2.9565    1.6696    2.4076 C.3       1 <0>        -0.1036
     14 C13        -4.4338    1.2903    2.2867 C.3       1 <0>        -0.1216
     15 C14        -5.1648    1.6686    3.5765 C.3       1 <0>        -0.1148
     16 C15        -6.6421    1.2893    3.4555 C.3       1 <0>        -0.0909
     17 H1         -6.7263    0.2325    3.2022 H         1 <0>         0.0675
     18 C16        -7.2964    2.1306    2.3578 C.3       1 <0>        -0.1502
     19 C17        -7.3468    1.5521    4.7879 C.3       1 <0>        -0.1149
     20 C18        -8.7924    1.0576    4.7064 C.3       1 <0>        -0.1218
     21 C19        -9.4971    1.3204    6.0388 C.3       1 <0>        -0.1150
     22 C20       -10.9427    0.8259    5.9573 C.3       1 <0>        -0.0920
     23 H2        -11.4381    1.2903    5.1046 H         1 <0>         0.0677
     24 C21       -10.9528   -0.6946    5.7870 C.3       1 <0>        -0.1501
     25 C22       -11.6829    1.2000    7.2430 C.3       1 <0>        -0.1152
     26 C23       -13.1585    0.8172    7.1118 C.3       1 <0>        -0.1225
     27 C24       -13.8987    1.1913    8.3975 C.3       1 <0>        -0.1155
     28 C25       -15.3742    0.8085    8.2663 C.3       1 <0>        -0.0983
     29 C26       -16.0882    1.0672    9.5945 C.3       1 <0>        -0.1490
     30 C27       -16.0235    1.6501    7.1659 C.3       1 <0>        -0.1497
     31 C28         1.3419    1.0819   -2.5100 C.3       1 <0>        -0.1221
     32 O2         -0.0642    2.0184   -4.7686 O.3       1 <0>        -0.2781
     33 C29        -0.1694    0.9032   -5.5167 C.2       1 <0>         0.5073
     34 O3         -0.8265   -0.0370   -5.1165 O.2       1 <0>        -0.4826
     35 C30         0.5141    0.8234   -6.8237 C.ar      1 <0>        -0.1797
     36 C31         0.4127   -0.3306   -7.6113 C.ar      1 <0>        -0.0105
     37 C32         1.0721   -0.3544   -8.8273 C.ar      1 <0>        -0.1815
     38 C33         1.8036    0.7515   -9.2228 C.ar      1 <0>         0.1349
     39 N1          1.8819    1.8250   -8.4600 N.ar      1 <0>        -0.4890
     40 C34         1.2674    1.8987   -7.2976 C.ar      1 <0>         0.1605
     41 C35        -2.7255    2.9683   -4.7470 C.3       1 <0>        -0.1212
     42 H3         -4.7907    2.1523   -2.3757 H         1 <0>         0.0692
     43 H4         -4.2870    3.4189   -1.2310 H         1 <0>         0.0729
     44 H5         -4.2696    3.7429   -2.9811 H         1 <0>         0.0693
     45 H6         -0.3392    1.0519    2.1406 H         1 <0>         0.0856
     46 H7         -0.5687    2.6506    1.3858 H         1 <0>         0.0780
     47 H8          0.0021   -0.0041    0.0020 H         1 <0>         0.0810
     48 H9          1.0101    1.4624    0.0003 H         1 <0>         0.0851
     49 H10        -1.9086   -0.4625   -0.0923 H         1 <0>         0.0638
     50 H11        -2.0547   -0.7889    1.6513 H         1 <0>         0.0726
     51 H12        -3.5030   -0.3913    0.6959 H         1 <0>         0.0711
     52 H13        -2.5119    1.1354    3.2473 H         1 <0>         0.0819
     53 H14        -2.8695    2.7434    2.5730 H         1 <0>         0.0733
     54 H15        -4.8785    1.8244    1.4470 H         1 <0>         0.0729
     55 H16        -4.5209    0.2164    2.1213 H         1 <0>         0.0644
     56 H17        -4.7201    1.1344    4.4161 H         1 <0>         0.0598
     57 H18        -5.0777    2.7424    3.7418 H         1 <0>         0.0614
     58 H19        -6.7943    1.9434    1.4086 H         1 <0>         0.0561
     59 H20        -8.3488    1.8604    2.2716 H         1 <0>         0.0544
     60 H21        -7.2121    3.1874    2.6112 H         1 <0>         0.0527
     61 H22        -6.8259    1.0220    5.5852 H         1 <0>         0.0594
     62 H23        -7.3399    2.6216    4.9978 H         1 <0>         0.0602
     63 H24        -9.3133    1.5877    3.9091 H         1 <0>         0.0628
     64 H25        -8.7993   -0.0120    4.4965 H         1 <0>         0.0624
     65 H26        -8.9762    0.7903    6.8361 H         1 <0>         0.0599
     66 H27        -9.4903    2.3899    6.2487 H         1 <0>         0.0597
     67 H28       -10.4575   -1.1590    6.6397 H         1 <0>         0.0525
     68 H29       -11.9827   -1.0469    5.7290 H         1 <0>         0.0548
     69 H30       -10.4255   -0.9611    4.8711 H         1 <0>         0.0549
     70 H31       -11.2423    0.6655    8.0846 H         1 <0>         0.0601
     71 H32       -11.5997    2.2738    7.4108 H         1 <0>         0.0598
     72 H33       -13.5991    1.3517    6.2702 H         1 <0>         0.0628
     73 H34       -13.2417   -0.2566    6.9440 H         1 <0>         0.0628
     74 H35       -13.4581    0.6568    9.2391 H         1 <0>         0.0600
     75 H36       -13.8154    2.2651    8.5653 H         1 <0>         0.0604
     76 H37       -15.4541   -0.2480    8.0106 H         1 <0>         0.0677
     77 H38       -16.0083    2.1237    9.8503 H         1 <0>         0.0537
     78 H39       -17.1394    0.7944    9.5011 H         1 <0>         0.0536
     79 H40       -15.6256    0.4676   10.3785 H         1 <0>         0.0533
     80 H41       -15.5149    1.4659    6.2196 H         1 <0>         0.0563
     81 H42       -17.0747    1.3774    7.0724 H         1 <0>         0.0522
     82 H43       -15.9436    2.7067    7.4216 H         1 <0>         0.0533
     83 H44         1.3419    0.0105   -2.7104 H         1 <0>         0.0734
     84 H45         1.8643    1.6017   -3.3131 H         1 <0>         0.0720
     85 H46         1.8472    1.2745   -1.5636 H         1 <0>         0.0773
     86 H47        -0.1656   -1.1796   -7.2781 H         1 <0>         0.1499
     87 H48         1.0163   -1.2269   -9.4613 H         1 <0>         0.1488
     88 H49         2.3193    0.7355  -10.1716 H         1 <0>         0.1666
     89 H50         1.3512    2.7968   -6.7036 H         1 <0>         0.1721
     90 H51        -3.2364    2.1333   -5.2264 H         1 <0>         0.0740
     91 H52        -3.4535    3.7338   -4.4784 H         1 <0>         0.0804
     92 H53        -1.9927    3.3894   -5.4354 H         1 <0>         0.0717
@<TRIPOS>BOND
     1    1    2 1
     2    1   42 1
     3    1   43 1
     4    1   44 1
     5    2    7 ar
     6    2    3 ar
     7    3    4 ar
     8    3   41 1
     9    4    5 ar
    10    4   32 1
    11    5    6 ar
    12    5   31 1
    13    6   11 1
    14    6    7 ar
    15    7    8 1
    16    8    9 1
    17    9   10 1
    18    9   12 1
    19    9   13 1
    20   10   11 1
    21   10   45 1
    22   10   46 1
    23   11   47 1
    24   11   48 1
    25   12   49 1
    26   12   50 1
    27   12   51 1
    28   13   14 1
    29   13   52 1
    30   13   53 1
    31   14   15 1
    32   14   54 1
    33   14   55 1
    34   15   16 1
    35   15   56 1
    36   15   57 1
    37   16   17 1
    38   16   18 1
    39   16   19 1
    40   18   58 1
    41   18   59 1
    42   18   60 1
    43   19   20 1
    44   19   61 1
    45   19   62 1
    46   20   21 1
    47   20   63 1
    48   20   64 1
    49   21   22 1
    50   21   65 1
    51   21   66 1
    52   22   23 1
    53   22   24 1
    54   22   25 1
    55   24   67 1
    56   24   68 1
    57   24   69 1
    58   25   26 1
    59   25   70 1
    60   25   71 1
    61   26   27 1
    62   26   72 1
    63   26   73 1
    64   27   28 1
    65   27   74 1
    66   27   75 1
    67   28   29 1
    68   28   30 1
    69   28   76 1
    70   29   77 1
    71   29   78 1
    72   29   79 1
    73   30   80 1
    74   30   81 1
    75   30   82 1
    76   31   83 1
    77   31   84 1
    78   31   85 1
    79   32   33 1
    80   33   34 2
    81   33   35 1
    82   35   40 ar
    83   35   36 ar
    84   36   37 ar
    85   36   86 1
    86   37   38 ar
    87   37   87 1
    88   38   39 ar
    89   38   88 1
    90   39   40 ar
    91   40   89 1
    92   41   90 1
    93   41   91 1
    94   41   92 1
@<TRIPOS>MOLECULE
ZINC33777203
   81    83     0     0     0
SMALL
USER_CHARGES
(4Z,5S)-1-(2-diethylaminoethyl)-5-(3-ethoxy-4-isopentyloxy-phenyl)-4-[hydroxy-(4-methoxyphenyl)methylene]pyrrolidine-2,3-dione
@<TRIPOS>ATOM
      1 C1         -2.9397    1.4929   -0.5221 C.3       1 <0>        -0.1909
      2 C2         -3.2678    2.2471    0.7680 C.3       1 <0>        -0.0167
      3 N1         -2.6816    1.5371    1.9127 N.4       1 <0>        -0.3956
      4 C3         -3.2683    0.1982    2.0582 C.3       1 <0>        -0.0139
      5 C4         -4.7050    0.3236    2.5692 C.3       1 <0>        -0.1863
      6 C5         -1.2196    1.4611    1.7926 C.3       1 <0>        -0.0354
      7 C6         -0.6257    2.8675    1.8936 C.3       1 <0>         0.1091
      8 N2          0.8325    2.7917    1.7737 N.am      1 <0>        -0.6018
      9 C7          1.5891    2.8710    0.5209 C.3       1 <0>         0.2676
     10 H1          1.2656    2.0686   -0.1585 H         1 <0>         0.0680
     11 C8          3.0495    2.7463    0.8890 C.2       1 <0>        -0.5029
     12 C9          4.1278    2.7674    0.0255 C.2       1 <0>         0.3941
     13 C10         3.9056    2.7769   -1.4285 C.ar      1 <0>        -0.1040
     14 C11         3.0721    1.8185   -2.0179 C.ar      1 <0>        -0.0632
     15 C12         2.8636    1.8346   -3.3781 C.ar      1 <0>        -0.2156
     16 C13         3.4875    2.7941   -4.1683 C.ar      1 <0>         0.1240
     17 C14         4.3205    3.7450   -3.5883 C.ar      1 <0>        -0.1509
     18 C15         4.5313    3.7407   -2.2285 C.ar      1 <0>        -0.0440
     19 O1          3.2832    2.8023   -5.5097 O.3       1 <0>        -0.3182
     20 C16         2.3289    1.8725   -6.0263 C.3       1 <0>         0.0262
     21 O2          5.3856    2.7794    0.5163 O.2       1 <0>        -0.5969
     22 C17         3.0898    2.6048    2.2840 C.2       1 <0>         0.3705
     23 O3          4.0944    2.4734    2.9599 O.3       1 <0>        -0.4682
     24 C18         1.6929    2.6431    2.7949 C.2       1 <0>         0.4802
     25 O4          1.3768    2.5516    3.9635 O.2       1 <0>        -0.5217
     26 C19         1.3375    4.1962   -0.1508 C.ar      1 <0>        -0.0810
     27 C20         1.0298    4.2393   -1.4980 C.ar      1 <0>        -0.1054
     28 C21         0.7972    5.4524   -2.1187 C.ar      1 <0>        -0.1709
     29 C22         0.8729    6.6289   -1.3905 C.ar      1 <0>         0.1000
     30 C23         1.1832    6.5857   -0.0348 C.ar      1 <0>         0.1006
     31 C24         1.4094    5.3659    0.5826 C.ar      1 <0>        -0.1479
     32 O5          1.2586    7.7376    0.6842 O.3       1 <0>        -0.3061
     33 C25         1.6845    7.6272    2.0438 C.3       1 <0>         0.0527
     34 C26         1.6678    9.0104    2.6975 C.3       1 <0>        -0.1516
     35 O6          0.6449    7.8232   -1.9996 O.3       1 <0>        -0.3053
     36 C27         0.3322    7.7912   -3.3937 C.3       1 <0>         0.0578
     37 C28         0.1100    9.2181   -3.8993 C.3       1 <0>        -0.1151
     38 C29        -0.2249    9.1838   -5.3919 C.3       1 <0>        -0.0916
     39 C30        -0.5689   10.5959   -5.8699 C.3       1 <0>        -0.1491
     40 C31         0.9820    8.6607   -6.1735 C.3       1 <0>        -0.1557
     41 H2         -3.3786    2.0245   -1.3793 H         1 <0>         0.1034
     42 H3         -3.3564    0.4763   -0.4686 H         1 <0>         0.0780
     43 H4         -1.8482    1.4357   -0.6459 H         1 <0>         0.0836
     44 H5         -2.8510    3.2637    0.7145 H         1 <0>         0.1319
     45 H6         -4.3593    2.3044    0.8918 H         1 <0>         0.1297
     46 H7         -3.2691   -0.3096    1.0825 H         1 <0>         0.1282
     47 H8         -2.6737   -0.3867    2.7754 H         1 <0>         0.1300
     48 H9         -5.1442   -0.6790    2.6781 H         1 <0>         0.1036
     49 H10        -5.2995    0.9085    1.8519 H         1 <0>         0.0779
     50 H11        -4.7041    0.8315    3.5449 H         1 <0>         0.0808
     51 H12        -0.8173    0.8342    2.6020 H         1 <0>         0.1348
     52 H13        -0.9540    1.0199    0.8205 H         1 <0>         0.1333
     53 H14        -1.0280    3.4944    1.0842 H         1 <0>         0.0979
     54 H15        -0.8912    3.3087    2.8656 H         1 <0>         0.0980
     55 H16         2.5907    1.0703   -1.4057 H         1 <0>         0.1229
     56 H17         2.2177    1.0984   -3.8332 H         1 <0>         0.1236
     57 H18         4.8030    4.4877   -4.2063 H         1 <0>         0.1274
     58 H19         5.1786    4.4793   -1.7791 H         1 <0>         0.1291
     59 H20         2.2617    1.9848   -7.1185 H         1 <0>         0.0982
     60 H21         1.3446    2.0691   -5.5762 H         1 <0>         0.0522
     61 H22         2.6458    0.8479   -5.7818 H         1 <0>         0.0548
     62 H23         0.9706    3.3230   -2.0667 H         1 <0>         0.1224
     63 H24         0.5563    5.4832   -3.1710 H         1 <0>         0.1287
     64 H25         1.6461    5.3292    1.6356 H         1 <0>         0.1273
     65 H26         1.0035    6.9562    2.5880 H         1 <0>         0.0557
     66 H27         2.7053    7.2186    2.0762 H         1 <0>         0.0654
     67 H28         1.9957    8.9253    3.7440 H         1 <0>         0.0788
     68 H29         0.6470    9.4189    2.6651 H         1 <0>         0.0639
     69 H30         2.3487    9.6813    2.1533 H         1 <0>         0.0681
     70 H31         1.1654    7.3321   -3.9459 H         1 <0>         0.0646
     71 H32        -0.5820    7.2000   -3.5510 H         1 <0>         0.0562
     72 H33        -0.7231    9.6772   -3.3470 H         1 <0>         0.0728
     73 H34         1.0242    9.8093   -3.7421 H         1 <0>         0.0757
     74 H35        -1.0859    8.5201   -5.5594 H         1 <0>         0.0705
     75 H36        -0.8097   10.5713   -6.9430 H         1 <0>         0.0576
     76 H37         0.2922   11.2596   -5.7025 H         1 <0>         0.0577
     77 H38        -1.4365   10.9720   -5.3080 H         1 <0>         0.0557
     78 H39         0.7412    8.6361   -7.2465 H         1 <0>         0.0571
     79 H40         1.2294    7.6455   -5.8298 H         1 <0>         0.0566
     80 H41         1.8430    9.3245   -6.0060 H         1 <0>         0.0587
     81 H42        -2.9166    2.1097    2.8221 H         1 <0>         0.4422
@<TRIPOS>BOND
     1    1    2 1
     2    1   41 1
     3    1   42 1
     4    1   43 1
     5    2    3 1
     6    2   44 1
     7    2   45 1
     8    3    4 1
     9    3    6 1
    10    3   81 1
    11    4    5 1
    12    4   46 1
    13    4   47 1
    14    5   48 1
    15    5   49 1
    16    5   50 1
    17    6    7 1
    18    6   51 1
    19    6   52 1
    20    7   53 1
    21    7   54 1
    22    7    8 1
    23    8   24 am
    24    8    9 1
    25    9   11 1
    26    9   26 1
    27    9   10 1
    28   11   22 2
    29   11   12 1
    30   12   21 2
    31   12   13 1
    32   13   18 ar
    33   13   14 ar
    34   14   15 ar
    35   14   55 1
    36   15   16 ar
    37   15   56 1
    38   16   17 ar
    39   16   19 1
    40   17   18 ar
    41   17   57 1
    42   18   58 1
    43   19   20 1
    44   20   59 1
    45   20   60 1
    46   20   61 1
    47   22   24 1
    48   22   23 1
    49   24   25 2
    50   26   31 ar
    51   26   27 ar
    52   27   28 ar
    53   27   62 1
    54   28   29 ar
    55   28   63 1
    56   29   30 ar
    57   29   35 1
    58   30   31 ar
    59   30   32 1
    60   31   64 1
    61   32   33 1
    62   33   34 1
    63   33   65 1
    64   33   66 1
    65   34   67 1
    66   34   68 1
    67   34   69 1
    68   35   36 1
    69   36   37 1
    70   36   70 1
    71   36   71 1
    72   37   38 1
    73   37   72 1
    74   37   73 1
    75   38   39 1
    76   38   40 1
    77   38   74 1
    78   39   75 1
    79   39   76 1
    80   39   77 1
    81   40   78 1
    82   40   79 1
    83   40   80 1
@<TRIPOS>MOLECULE
ZINC36507873
   86    88     0     0     0
SMALL
USER_CHARGES

@<TRIPOS>ATOM
      1 C1          3.1724   -6.8605    0.0882 C.3       1 <0>        -0.1535
      2 C2          2.1524   -5.8108   -0.3576 C.3       1 <0>        -0.1255
      3 C3          0.7374   -6.3553   -0.1526 C.3       1 <0>        -0.1170
      4 C4         -0.2825   -5.3056   -0.5983 C.3       1 <0>        -0.1162
      5 C5         -1.6976   -5.8501   -0.3933 C.3       1 <0>        -0.1390
      6 C6         -2.7171   -4.7578   -0.7225 C.3       1 <0>         0.1229
      7 N1         -4.0652   -5.2371   -0.4078 N.am      1 <0>        -0.5720
      8 C7         -4.8982   -5.8241   -1.4603 C.3       1 <0>         0.1206
      9 H1         -5.8466   -6.1504   -1.0335 H         1 <0>         0.1139
     10 C8         -4.1747   -7.0248   -2.0732 C.3       1 <0>        -0.1288
     11 C9         -4.0233   -8.1221   -1.0177 C.3       1 <0>        -0.1228
     12 C10        -3.2998   -9.3229   -1.6306 C.3       1 <0>        -0.1168
     13 C11        -3.1483  -10.4201   -0.5751 C.3       1 <0>        -0.1222
     14 C12        -2.4248  -11.6209   -1.1880 C.3       1 <0>        -0.1533
     15 C13        -5.1565   -4.7940   -2.5295 C.2       1 <0>         0.5058
     16 O1         -4.6278   -3.7046   -2.4625 O.2       1 <0>        -0.5124
     17 N2         -5.9752   -5.0833   -3.5603 N.am      1 <0>        -0.7261
     18 C14        -6.2264   -4.0819   -4.5997 C.3       1 <0>         0.1496
     19 C15        -7.3583   -3.1550   -4.1520 C.3       1 <0>        -0.1347
     20 C16        -7.6205   -2.1092   -5.2375 C.3       1 <0>        -0.1168
     21 C17        -8.0203   -2.8117   -6.5366 C.3       1 <0>        -0.1221
     22 C18        -6.8884   -3.7386   -6.9843 C.3       1 <0>        -0.1160
     23 C19        -6.6261   -4.7845   -5.8988 C.3       1 <0>        -0.1262
     24 C20        -4.5391   -5.1381    0.8500 C.2       1 <0>         0.5773
     25 O2         -3.8830   -4.5731    1.7044 O.2       1 <0>        -0.5274
     26 C21        -5.8504   -5.7135    1.1898 C.2       1 <0>        -0.1219
     27 C22        -6.9900   -5.0414    0.8753 C.2       1 <0>        -0.0531
     28 C23        -6.9131   -3.6758    0.3387 C.ar      1 <0>        -0.0842
     29 C24        -7.8499   -3.2364   -0.6038 C.ar      1 <0>        -0.0972
     30 C25        -7.7709   -1.9534   -1.1019 C.ar      1 <0>        -0.1193
     31 C26        -6.7688   -1.1006   -0.6724 C.ar      1 <0>        -0.1014
     32 C27        -5.8381   -1.5274    0.2591 C.ar      1 <0>        -0.1094
     33 C28        -5.9062   -2.8054    0.7716 C.ar      1 <0>        -0.1038
     34 C29        -5.9289   -7.0244    1.8741 C.ar      1 <0>        -0.0431
     35 C30        -5.4208   -7.1722    3.1649 C.ar      1 <0>        -0.0946
     36 C31        -5.4968   -8.3962    3.7971 C.ar      1 <0>        -0.1162
     37 C32        -6.0755   -9.4756    3.1537 C.ar      1 <0>        -0.1130
     38 C33        -6.5807   -9.3356    1.8733 C.ar      1 <0>        -0.1176
     39 C34        -6.5163   -8.1152    1.2328 C.ar      1 <0>        -0.1046
     40 H2          4.1805   -6.4726   -0.0579 H         1 <0>         0.0531
     41 H3          3.0206   -7.0897    1.1429 H         1 <0>         0.0532
     42 H4          3.0427   -7.7671   -0.5029 H         1 <0>         0.0526
     43 H5          2.2821   -4.9042    0.2335 H         1 <0>         0.0608
     44 H6          2.3043   -5.5817   -1.4124 H         1 <0>         0.0600
     45 H7          0.6077   -7.2619   -0.7437 H         1 <0>         0.0594
     46 H8          0.5856   -6.5845    0.9022 H         1 <0>         0.0606
     47 H9         -0.1529   -4.3990   -0.0073 H         1 <0>         0.0636
     48 H10        -0.1307   -5.0764   -1.6531 H         1 <0>         0.0609
     49 H11        -1.8565   -6.7053   -1.0501 H         1 <0>         0.0682
     50 H12        -1.8205   -6.1610    0.6442 H         1 <0>         0.0654
     51 H13        -2.5004   -3.8683   -0.1310 H         1 <0>         0.0816
     52 H14        -2.6570   -4.5124   -1.7829 H         1 <0>         0.0854
     53 H15        -4.7532   -7.4071   -2.9142 H         1 <0>         0.0781
     54 H16        -3.1887   -6.7164   -2.4207 H         1 <0>         0.0784
     55 H17        -3.4448   -7.7399   -0.1767 H         1 <0>         0.0705
     56 H18        -5.0093   -8.4306   -0.6703 H         1 <0>         0.0678
     57 H19        -3.8782   -9.7051   -2.4716 H         1 <0>         0.0609
     58 H20        -2.3137   -9.0144   -1.9780 H         1 <0>         0.0602
     59 H21        -2.5699  -10.0379    0.2659 H         1 <0>         0.0595
     60 H22        -4.1343  -10.7286   -0.2277 H         1 <0>         0.0608
     61 H23        -3.0033  -12.0031   -2.0290 H         1 <0>         0.0527
     62 H24        -1.4388  -11.3124   -1.5354 H         1 <0>         0.0526
     63 H25        -2.3169  -12.4026   -0.4360 H         1 <0>         0.0530
     64 H26        -6.3981   -5.9546   -3.6140 H         1 <0>         0.3971
     65 H27        -5.3220   -3.4968   -4.7666 H         1 <0>         0.0862
     66 H28        -8.2626   -3.7402   -3.9852 H         1 <0>         0.0606
     67 H29        -7.0735   -2.6545   -3.2265 H         1 <0>         0.0788
     68 H30        -8.4269   -1.4488   -4.9186 H         1 <0>         0.0636
     69 H31        -6.7162   -1.5240   -5.4044 H         1 <0>         0.0629
     70 H32        -8.9247   -3.3969   -6.3698 H         1 <0>         0.0621
     71 H33        -8.2072   -2.0666   -7.3099 H         1 <0>         0.0633
     72 H34        -7.1732   -4.2391   -7.9098 H         1 <0>         0.0669
     73 H35        -5.9841   -3.1535   -7.1511 H         1 <0>         0.0644
     74 H36        -5.8197   -5.4448   -6.2177 H         1 <0>         0.0675
     75 H37        -7.5305   -5.3696   -5.7320 H         1 <0>         0.0673
     76 H38        -7.9515   -5.5114    1.0200 H         1 <0>         0.1369
     77 H39        -8.6322   -3.9007   -0.9402 H         1 <0>         0.1194
     78 H40        -8.4928   -1.6128   -1.8295 H         1 <0>         0.1205
     79 H41        -6.7125   -0.0966   -1.0666 H         1 <0>         0.1190
     80 H42        -5.0591   -0.8559    0.5887 H         1 <0>         0.1199
     81 H43        -5.1822   -3.1353    1.5019 H         1 <0>         0.1423
     82 H44        -4.9686   -6.3303    3.6680 H         1 <0>         0.1273
     83 H45        -5.1035   -8.5119    4.7963 H         1 <0>         0.1246
     84 H46        -6.1326  -10.4317    3.6527 H         1 <0>         0.1226
     85 H47        -7.0309  -10.1820    1.3761 H         1 <0>         0.1241
     86 H48        -6.9154   -8.0058    0.2353 H         1 <0>         0.1211
@<TRIPOS>BOND
     1    1    2 1
     2    1   40 1
     3    1   41 1
     4    1   42 1
     5    2    3 1
     6    2   43 1
     7    2   44 1
     8    3    4 1
     9    3   45 1
    10    3   46 1
    11    4    5 1
    12    4   47 1
    13    4   48 1
    14    5    6 1
    15    5   49 1
    16    5   50 1
    17    6    7 1
    18    6   51 1
    19    6   52 1
    20    7    8 1
    21    7   24 am
    22    8    9 1
    23    8   10 1
    24    8   15 1
    25   10   11 1
    26   10   53 1
    27   10   54 1
    28   11   12 1
    29   11   55 1
    30   11   56 1
    31   12   13 1
    32   12   57 1
    33   12   58 1
    34   13   14 1
    35   13   59 1
    36   13   60 1
    37   14   61 1
    38   14   62 1
    39   14   63 1
    40   15   16 2
    41   15   17 am
    42   17   18 1
    43   17   64 1
    44   18   23 1
    45   18   19 1
    46   18   65 1
    47   19   20 1
    48   19   66 1
    49   19   67 1
    50   20   21 1
    51   20   68 1
    52   20   69 1
    53   21   22 1
    54   21   70 1
    55   21   71 1
    56   22   23 1
    57   22   72 1
    58   22   73 1
    59   23   74 1
    60   23   75 1
    61   24   25 2
    62   24   26 1
    63   26   27 2
    64   26   34 1
    65   27   28 1
    66   27   76 1
    67   28   33 ar
    68   28   29 ar
    69   29   30 ar
    70   29   77 1
    71   30   31 ar
    72   30   78 1
    73   31   32 ar
    74   31   79 1
    75   32   33 ar
    76   32   80 1
    77   33   81 1
    78   34   39 ar
    79   34   35 ar
    80   35   36 ar
    81   35   82 1
    82   36   37 ar
    83   36   83 1
    84   37   38 ar
    85   37   84 1
    86   38   39 ar
    87   38   85 1
    88   39   86 1
@<TRIPOS>MOLECULE
ZINC36518086
   81    82     0     0     0
SMALL
USER_CHARGES

@<TRIPOS>ATOM
      1 C1          1.4252   -0.2858   -1.5907 C.3       1 <0>        -0.1541
      2 C2          0.9848   -1.7488   -1.5102 C.3       1 <0>        -0.1252
      3 C3         -0.4911   -1.8160   -1.1123 C.3       1 <0>        -0.1179
      4 C4         -0.9315   -3.2790   -1.0318 C.3       1 <0>        -0.1138
      5 C5         -2.4074   -3.3462   -0.6340 C.3       1 <0>        -0.1451
      6 C6         -2.8478   -4.8092   -0.5534 C.3       1 <0>         0.1108
      7 N1         -4.2284   -4.8776   -0.0682 N.am      1 <0>        -0.5978
      8 C7         -5.3333   -5.0169   -1.0200 C.3       1 <0>         0.1327
      9 H1         -6.2821   -4.9434   -0.4886 H         1 <0>         0.1179
     10 C8         -5.2410   -6.3779   -1.7129 C.3       1 <0>        -0.0858
     11 C9         -6.4498   -6.5654   -2.6318 C.3       1 <0>        -0.1308
     12 C10        -6.3575   -7.9264   -3.3247 C.3       1 <0>        -0.1142
     13 C11        -6.3413   -9.0353   -2.2707 C.3       1 <0>        -0.1215
     14 C12        -5.1324   -8.8478   -1.3518 C.3       1 <0>        -0.1181
     15 C13        -5.2247   -7.4868   -0.6589 C.3       1 <0>        -0.1060
     16 C14        -5.2490   -3.9214   -2.0514 C.2       1 <0>         0.5109
     17 O1         -4.2041   -3.7130   -2.6307 O.2       1 <0>        -0.5017
     18 N2         -6.3348   -3.1732   -2.3300 N.am      1 <0>        -0.7052
     19 C15        -6.2844   -2.1816   -3.4073 C.3       1 <0>        -0.3623
     20 S1         -6.9306   -2.9154   -4.9352 S.o2      1 <0>         2.4691
     21 O2         -6.9533   -1.9448   -5.9728 O.2       1 <0>        -0.9316
     22 O3         -6.3457   -4.1924   -5.1504 O.2       1 <0>        -0.9165
     23 C16        -8.6269   -3.2495   -4.5949 C.ar      1 <0>        -0.6663
     24 C17        -8.9876   -4.4303   -3.9733 C.ar      1 <0>        -0.0235
     25 C18       -10.3183   -4.6924   -3.7063 C.ar      1 <0>        -0.1396
     26 C19       -11.2884   -3.7735   -4.0605 C.ar      1 <0>        -0.0263
     27 C20       -10.9276   -2.5922   -4.6813 C.ar      1 <0>        -0.1399
     28 C21        -9.5964   -2.3282   -4.9444 C.ar      1 <0>        -0.0195
     29 C22       -12.7392   -4.0596   -3.7704 C.3       1 <0>        -0.1275
     30 C23        -4.4820   -4.8123    1.2539 C.2       1 <0>         0.5191
     31 O4         -5.6250   -4.8689    1.6556 O.2       1 <0>        -0.5356
     32 C24        -3.3454   -4.6689    2.2330 C.3       1 <0>        -0.1398
     33 C25        -3.9024   -4.6189    3.6572 C.3       1 <0>        -0.1049
     34 C26        -2.7484   -4.4734    4.6512 C.3       1 <0>        -0.1204
     35 C27        -3.3054   -4.4234    6.0754 C.3       1 <0>        -0.1251
     36 C28        -2.1514   -4.2779    7.0694 C.3       1 <0>        -0.1539
     37 H2          2.4766   -0.2380   -1.8741 H         1 <0>         0.0535
     38 H3          0.8238    0.2341   -2.3365 H         1 <0>         0.0531
     39 H4          1.2889    0.1887   -0.6189 H         1 <0>         0.0525
     40 H5          1.1211   -2.2233   -2.4819 H         1 <0>         0.0612
     41 H6          1.5861   -2.2688   -0.7644 H         1 <0>         0.0602
     42 H7         -0.6274   -1.3415   -0.1406 H         1 <0>         0.0584
     43 H8         -1.0924   -1.2961   -1.8581 H         1 <0>         0.0604
     44 H9         -0.7952   -3.7535   -2.0036 H         1 <0>         0.0655
     45 H10        -0.3302   -3.7990   -0.2860 H         1 <0>         0.0597
     46 H11        -2.5437   -2.8717    0.3378 H         1 <0>         0.0559
     47 H12        -3.0087   -2.8263   -1.3797 H         1 <0>         0.0871
     48 H13        -2.7877   -5.2618   -1.5432 H         1 <0>         0.0935
     49 H14        -2.1944   -5.3481    0.1327 H         1 <0>         0.0754
     50 H15        -4.3255   -6.4239   -2.3028 H         1 <0>         0.0872
     51 H16        -7.3652   -6.5194   -2.0419 H         1 <0>         0.0648
     52 H17        -6.4614   -5.7754   -3.3828 H         1 <0>         0.0805
     53 H18        -7.2187   -8.0600   -3.9794 H         1 <0>         0.0649
     54 H19        -5.4421   -7.9724   -3.9146 H         1 <0>         0.0657
     55 H20        -7.2567   -8.9892   -1.6808 H         1 <0>         0.0614
     56 H21        -6.2755  -10.0048   -2.7643 H         1 <0>         0.0619
     57 H22        -5.1209   -9.6377   -0.6008 H         1 <0>         0.0626
     58 H23        -4.2170   -8.8938   -1.9417 H         1 <0>         0.0622
     59 H24        -4.3635   -7.3532   -0.0042 H         1 <0>         0.0618
     60 H25        -6.1402   -7.4408   -0.0690 H         1 <0>         0.0656
     61 H26        -7.1497   -3.2912   -1.8172 H         1 <0>         0.4142
     62 H27        -6.8904   -1.3176   -3.1345 H         1 <0>         0.1456
     63 H28        -5.2525   -1.8670   -3.5634 H         1 <0>         0.1568
     64 H29        -8.2297   -5.1483   -3.6966 H         1 <0>         0.1404
     65 H30       -10.6002   -5.6153   -3.2213 H         1 <0>         0.1340
     66 H31       -11.6855   -1.8744   -4.9584 H         1 <0>         0.1342
     67 H32        -9.3142   -1.4037   -5.4261 H         1 <0>         0.1428
     68 H33       -12.9949   -3.6756   -2.7828 H         1 <0>         0.0809
     69 H34       -13.3625   -3.5744   -4.5215 H         1 <0>         0.0740
     70 H35       -12.9096   -5.1359   -3.7970 H         1 <0>         0.0741
     71 H36        -2.6725   -5.5209    2.1358 H         1 <0>         0.0950
     72 H37        -2.7995   -3.7490    2.0239 H         1 <0>         0.0962
     73 H38        -4.5753   -3.7670    3.7544 H         1 <0>         0.0686
     74 H39        -4.4483   -5.5389    3.8663 H         1 <0>         0.0699
     75 H40        -2.0755   -5.3253    4.5540 H         1 <0>         0.0624
     76 H41        -2.2025   -3.5534    4.4421 H         1 <0>         0.0618
     77 H42        -3.9783   -3.5715    6.1726 H         1 <0>         0.0613
     78 H43        -3.8513   -5.3434    6.2845 H         1 <0>         0.0618
     79 H44        -1.4785   -5.1298    6.9722 H         1 <0>         0.0535
     80 H45        -1.6055   -3.3579    6.8603 H         1 <0>         0.0533
     81 H46        -2.5482   -4.2423    8.0840 H         1 <0>         0.0538
@<TRIPOS>BOND
     1    1    2 1
     2    1   37 1
     3    1   38 1
     4    1   39 1
     5    2    3 1
     6    2   40 1
     7    2   41 1
     8    3    4 1
     9    3   42 1
    10    3   43 1
    11    4    5 1
    12    4   44 1
    13    4   45 1
    14    5    6 1
    15    5   46 1
    16    5   47 1
    17    6    7 1
    18    6   48 1
    19    6   49 1
    20    7    8 1
    21    7   30 am
    22    8    9 1
    23    8   10 1
    24    8   16 1
    25   10   15 1
    26   10   11 1
    27   10   50 1
    28   11   12 1
    29   11   51 1
    30   11   52 1
    31   12   13 1
    32   12   53 1
    33   12   54 1
    34   13   14 1
    35   13   55 1
    36   13   56 1
    37   14   15 1
    38   14   57 1
    39   14   58 1
    40   15   59 1
    41   15   60 1
    42   16   17 2
    43   16   18 am
    44   18   19 1
    45   18   61 1
    46   19   20 1
    47   19   62 1
    48   19   63 1
    49   20   21 2
    50   20   22 2
    51   20   23 1
    52   23   28 ar
    53   23   24 ar
    54   24   25 ar
    55   24   64 1
    56   25   26 ar
    57   25   65 1
    58   26   27 ar
    59   26   29 1
    60   27   28 ar
    61   27   66 1
    62   28   67 1
    63   29   68 1
    64   29   69 1
    65   29   70 1
    66   30   31 2
    67   30   32 1
    68   32   33 1
    69   32   71 1
    70   32   72 1
    71   33   34 1
    72   33   73 1
    73   33   74 1
    74   34   35 1
    75   34   75 1
    76   34   76 1
    77   35   36 1
    78   35   77 1
    79   35   78 1
    80   36   79 1
    81   36   80 1
    82   36   81 1
@<TRIPOS>MOLECULE
ZINC40019168
   86    88     0     0     0
SMALL
USER_CHARGES

@<TRIPOS>ATOM
      1 C1          1.6466    4.7089    4.9095 C.3       1 <0>        -0.1555
      2 C2          2.3591    3.5259    4.2510 C.3       1 <0>        -0.1206
      3 C3          1.3203    2.5327    3.7263 C.3       1 <0>        -0.1460
      4 C4          2.0328    1.3496    3.0678 C.3       1 <0>        -0.0161
      5 N1          1.0354    0.3961    2.5640 N.4       1 <0>        -0.3839
      6 C5          0.2544    1.0256    1.4908 C.3       1 <0>        -0.0132
      7 C6         -0.8720    0.0840    1.0600 C.3       1 <0>        -0.1515
      8 C7         -1.6545    0.7183   -0.0916 C.3       1 <0>        -0.1187
      9 C8         -2.7809   -0.2233   -0.5224 C.3       1 <0>        -0.1586
     10 C9          1.7174   -0.7946    2.0395 C.3       1 <0>        -0.0098
     11 C10         2.4040   -1.5365    3.1880 C.3       1 <0>        -0.1785
     12 C11         3.0091   -2.8402    2.6635 C.3       1 <0>         0.1479
     13 N2          3.6665   -3.5506    3.7633 N.am      1 <0>        -0.6142
     14 C12         5.0667   -3.3978    4.1753 C.3       1 <0>         0.2687
     15 H1          5.7307   -3.6739    3.3562 H         1 <0>         0.0694
     16 C13         5.2666   -4.3340    5.3442 C.2       1 <0>        -0.4955
     17 C14         4.0804   -4.9498    5.5587 C.2       1 <0>         0.2556
     18 C15         3.0918   -4.4541    4.5777 C.2       1 <0>         0.5142
     19 O1          1.9323   -4.8117    4.5147 O.2       1 <0>        -0.5340
     20 O2          3.8369   -5.8688    6.5211 O.3       1 <0>        -0.6488
     21 C16         6.5061   -4.5364    6.1002 C.2       1 <0>         0.5043
     22 O3          6.5710   -4.1923    7.2654 O.2       1 <0>        -0.4725
     23 C17         7.6774   -5.1587    5.4468 C.ar      1 <0>        -0.1455
     24 C18         7.5923   -5.5953    4.1230 C.ar      1 <0>        -0.0621
     25 C19         8.6889   -6.1745    3.5194 C.ar      1 <0>        -0.1394
     26 C20         9.8714   -6.3238    4.2226 C.ar      1 <0>        -0.0726
     27 C21         9.9625   -5.8937    5.5349 C.ar      1 <0>        -0.1365
     28 C22         8.8755   -5.3072    6.1487 C.ar      1 <0>        -0.0702
     29 C23        11.0652   -6.9580    3.5566 C.3       1 <0>        -0.1154
     30 C24         5.3301   -1.9755    4.5981 C.ar      1 <0>        -0.1282
     31 C25         4.4806   -1.3537    5.4948 C.ar      1 <0>        -0.0443
     32 C26         4.7190   -0.0504    5.8843 C.ar      1 <0>        -0.2075
     33 C27         5.8137    0.6360    5.3744 C.ar      1 <0>         0.2130
     34 C28         6.6651    0.0085    4.4738 C.ar      1 <0>        -0.1974
     35 C29         6.4240   -1.2969    4.0928 C.ar      1 <0>        -0.0651
     36 N3          6.0576    1.9544    5.7658 N.pl3     1 <0>        -0.6288
     37 C30         7.2126    2.6768    5.2270 C.3       1 <0>         0.1180
     38 C31         6.8062    3.4033    3.9433 C.3       1 <0>        -0.1681
     39 C32         5.1584    2.6148    6.7153 C.3       1 <0>         0.1243
     40 C33         5.6539    2.3697    8.1420 C.3       1 <0>        -0.1777
     41 H2          1.0361    4.3500    5.7381 H         1 <0>         0.0587
     42 H3          2.3867    5.4165    5.2833 H         1 <0>         0.0640
     43 H4          1.0094    5.2032    4.1762 H         1 <0>         0.0562
     44 H5          2.9696    3.8848    3.4224 H         1 <0>         0.0703
     45 H6          2.9963    3.0316    4.9844 H         1 <0>         0.0760
     46 H7          0.7098    2.1737    4.5549 H         1 <0>         0.0854
     47 H8          0.6830    3.0270    2.9930 H         1 <0>         0.0832
     48 H9          2.6433    1.7086    2.2392 H         1 <0>         0.1275
     49 H10         2.6700    0.8554    3.8011 H         1 <0>         0.1362
     50 H11        -0.1724    1.9610    1.8528 H         1 <0>         0.1295
     51 H12         0.9042    1.2282    0.6395 H         1 <0>         0.1277
     52 H13        -0.4470   -0.8645    0.7316 H         1 <0>         0.0887
     53 H14        -1.5419   -0.0901    1.9020 H         1 <0>         0.0868
     54 H15        -2.0795    1.6668    0.2368 H         1 <0>         0.0709
     55 H16        -0.9845    0.8925   -0.9336 H         1 <0>         0.0716
     56 H17        -3.3383    0.2286   -1.3428 H         1 <0>         0.0642
     57 H18        -2.3559   -1.1718   -0.8508 H         1 <0>         0.0598
     58 H19        -3.4508   -0.3975    0.3196 H         1 <0>         0.0592
     59 H20         0.9881   -1.4523    1.5666 H         1 <0>         0.1324
     60 H21         2.4637   -0.4918    1.3050 H         1 <0>         0.1296
     61 H22         3.1937   -0.9109    3.6040 H         1 <0>         0.1007
     62 H23         1.6723   -1.7618    3.9639 H         1 <0>         0.0885
     63 H24         2.2193   -3.4658    2.2475 H         1 <0>         0.0843
     64 H25         3.7408   -2.6149    1.8877 H         1 <0>         0.0830
     65 H26         6.6698   -5.4800    3.5733 H         1 <0>         0.1307
     66 H27         8.6245   -6.5126    2.4957 H         1 <0>         0.1210
     67 H28        10.8882   -6.0136    6.0781 H         1 <0>         0.1214
     68 H29         8.9493   -4.9679    7.1714 H         1 <0>         0.1279
     69 H30        11.6629   -6.1865    3.0712 H         1 <0>         0.0693
     70 H31        11.6703   -7.4689    4.3056 H         1 <0>         0.0657
     71 H32        10.7259   -7.6773    2.8113 H         1 <0>         0.0658
     72 H33         3.6295   -1.8879    5.8906 H         1 <0>         0.1137
     73 H34         4.0550    0.4347    6.5844 H         1 <0>         0.1151
     74 H35         7.5169    0.5394    4.0751 H         1 <0>         0.1180
     75 H36         7.0880   -1.7869    3.3961 H         1 <0>         0.1184
     76 H37         7.5614    3.4034    5.9608 H         1 <0>         0.0709
     77 H38         8.0127    1.9701    5.0068 H         1 <0>         0.0757
     78 H39         6.4574    2.6767    3.2094 H         1 <0>         0.0557
     79 H40         6.0061    4.1100    4.1635 H         1 <0>         0.0524
     80 H41         7.6655    3.9408    3.5424 H         1 <0>         0.0626
     81 H42         5.1422    3.6862    6.5154 H         1 <0>         0.0688
     82 H43         4.1526    2.2095    6.6053 H         1 <0>         0.0699
     83 H44         4.9848    2.8611    8.8484 H         1 <0>         0.0621
     84 H45         5.6701    1.2983    8.3419 H         1 <0>         0.0626
     85 H46         6.6597    2.7751    8.2520 H         1 <0>         0.0564
     86 H47         0.4182    0.1265    3.3154 H         1 <0>         0.4227
@<TRIPOS>BOND
     1    1    2 1
     2    1   41 1
     3    1   42 1
     4    1   43 1
     5    2    3 1
     6    2   44 1
     7    2   45 1
     8    3    4 1
     9    3   46 1
    10    3   47 1
    11    4    5 1
    12    4   48 1
    13    4   49 1
    14    5    6 1
    15    5   10 1
    16    5   86 1
    17    6    7 1
    18    6   50 1
    19    6   51 1
    20    7    8 1
    21    7   52 1
    22    7   53 1
    23    8    9 1
    24    8   54 1
    25    8   55 1
    26    9   56 1
    27    9   57 1
    28    9   58 1
    29   10   11 1
    30   10   59 1
    31   10   60 1
    32   11   12 1
    33   11   61 1
    34   11   62 1
    35   12   13 1
    36   12   63 1
    37   12   64 1
    38   13   18 am
    39   13   14 1
    40   14   15 1
    41   14   16 1
    42   14   30 1
    43   16   17 2
    44   16   21 1
    45   17   18 1
    46   17   20 1
    47   18   19 2
    48   21   22 2
    49   21   23 1
    50   23   28 ar
    51   23   24 ar
    52   24   25 ar
    53   24   65 1
    54   25   26 ar
    55   25   66 1
    56   26   27 ar
    57   26   29 1
    58   27   28 ar
    59   27   67 1
    60   28   68 1
    61   29   69 1
    62   29   70 1
    63   29   71 1
    64   30   35 ar
    65   30   31 ar
    66   31   32 ar
    67   31   72 1
    68   32   33 ar
    69   32   73 1
    70   33   34 ar
    71   33   36 1
    72   34   35 ar
    73   34   74 1
    74   35   75 1
    75   36   37 1
    76   36   39 1
    77   37   38 1
    78   37   76 1
    79   37   77 1
    80   38   78 1
    81   38   79 1
    82   38   80 1
    83   39   40 1
    84   39   81 1
    85   39   82 1
    86   40   83 1
    87   40   84 1
    88   40   85 1
@<TRIPOS>MOLECULE
ZINC08648011
   60    61     0     0     0
SMALL
USER_CHARGES
N-[2-(2-methoxyethoxy)phenyl]-1-[2-[[2-(2-methoxyethoxy)phenyl]thiocarbamoylsulfanyl]ethylsulfanyl]thioformamide
@<TRIPOS>ATOM
      1 C1         -3.3774    5.6547   -4.7677 C.3       1 <0>         0.0302
      2 O1         -3.6023    4.3397   -4.2557 O.3       1 <0>        -0.3850
      3 C2         -4.6123    4.2736   -3.2470 C.3       1 <0>         0.0610
      4 C3         -4.7674    2.8266   -2.7746 C.3       1 <0>         0.0620
      5 O2         -3.5631    2.4037   -2.1320 O.3       1 <0>        -0.3100
      6 C4         -3.5341    1.1324   -1.6503 C.ar      1 <0>         0.1387
      7 C5         -4.6400    0.3102   -1.7932 C.ar      1 <0>        -0.2106
      8 C6         -4.6087   -0.9824   -1.3037 C.ar      1 <0>        -0.0626
      9 C7         -3.4754   -1.4587   -0.6706 C.ar      1 <0>        -0.1513
     10 C8         -2.3665   -0.6464   -0.5279 C.ar      1 <0>        -0.0313
     11 C9         -2.3922    0.6533   -1.0122 C.ar      1 <0>         0.0614
     12 N1         -1.2707    1.4800   -0.8652 N.pl3     1 <0>        -0.5518
     13 C10        -0.0357    0.9848   -1.0798 C.2       1 <0>         0.2869
     14 S1          0.1750   -0.6860   -1.3875 S.2       1 <0>        -0.5398
     15 S2          1.3612    2.0584   -1.0510 S.3       1 <0>         0.0052
     16 C11         2.6796    0.8680   -1.3988 C.3       1 <0>        -0.0959
     17 C12         4.0270    1.5923   -1.4240 C.3       1 <0>        -0.0954
     18 S3          5.3454    0.4020   -1.7718 S.3       1 <0>         0.0038
     19 C13         6.7424    1.4755   -1.7430 C.2       1 <0>         0.2863
     20 S4          6.5316    3.1464   -1.4353 S.2       1 <0>        -0.5379
     21 N2          7.9767    0.9812   -1.9631 N.pl3     1 <0>        -0.5541
     22 C14         9.0981    1.8093   -1.8230 C.ar      1 <0>         0.0688
     23 C15         9.1553    2.7339   -0.7904 C.ar      1 <0>        -0.0319
     24 C16        10.2642    3.5470   -0.6520 C.ar      1 <0>        -0.1477
     25 C17        11.3143    3.4479   -1.5461 C.ar      1 <0>        -0.0642
     26 C18        11.2623    2.5321   -2.5806 C.ar      1 <0>        -0.2071
     27 C19        10.1562    1.7104   -2.7237 C.ar      1 <0>         0.1373
     28 O3         10.1032    0.8098   -3.7412 O.3       1 <0>        -0.3102
     29 C20        11.2243    0.7641   -4.6261 C.3       1 <0>         0.0621
     30 C21        10.9848   -0.3009   -5.6981 C.3       1 <0>         0.0609
     31 O4          9.8756    0.0841   -6.5127 O.3       1 <0>        -0.3850
     32 C22         9.5659   -0.8475   -7.5511 C.3       1 <0>         0.0302
     33 H1         -2.5972    5.6200   -5.5281 H         1 <0>         0.0891
     34 H2         -4.2984    6.0351   -5.2094 H         1 <0>         0.0430
     35 H3         -3.0650    6.3120   -3.9563 H         1 <0>         0.0435
     36 H4         -5.5590    4.6254   -3.6571 H         1 <0>         0.0747
     37 H5         -4.3255    4.9023   -2.4040 H         1 <0>         0.0617
     38 H6         -4.9668    2.1839   -3.6320 H         1 <0>         0.0757
     39 H7         -5.5971    2.7612   -2.0707 H         1 <0>         0.0820
     40 H8         -5.5266    0.6790   -2.2875 H         1 <0>         0.1342
     41 H9         -5.4716   -1.6220   -1.4163 H         1 <0>         0.1303
     42 H10        -3.4553   -2.4694   -0.2905 H         1 <0>         0.1329
     43 H11        -1.4813   -1.0222   -0.0363 H         1 <0>         0.1614
     44 H12        -1.3831    2.4088   -0.6090 H         1 <0>         0.4191
     45 H13         2.6927    0.1031   -0.6224 H         1 <0>         0.1224
     46 H14         2.5005    0.4001   -2.3669 H         1 <0>         0.1228
     47 H15         4.0140    2.3572   -2.2004 H         1 <0>         0.1227
     48 H16         4.2061    2.0602   -0.4559 H         1 <0>         0.1225
     49 H17         8.0888    0.0522   -2.2185 H         1 <0>         0.4190
     50 H18         8.3349    2.8160   -0.0928 H         1 <0>         0.1511
     51 H19        10.3090    4.2644    0.1541 H         1 <0>         0.1332
     52 H20        12.1773    4.0880   -1.4364 H         1 <0>         0.1309
     53 H21        12.0840    2.4576   -3.2774 H         1 <0>         0.1346
     54 H22        11.3514    1.7365   -5.1020 H         1 <0>         0.0758
     55 H23        12.1230    0.5156   -4.0615 H         1 <0>         0.0821
     56 H24        11.8753   -0.3980   -6.3192 H         1 <0>         0.0748
     57 H25        10.7697   -1.2563   -5.2195 H         1 <0>         0.0617
     58 H26         8.7132   -0.4829   -8.1238 H         1 <0>         0.0890
     59 H27        10.4270   -0.9559   -8.2106 H         1 <0>         0.0431
     60 H28         9.3214   -1.8142   -7.1109 H         1 <0>         0.0435
@<TRIPOS>BOND
     1    1    2 1
     2    1   33 1
     3    1   34 1
     4    1   35 1
     5    2    3 1
     6    3    4 1
     7    3   36 1
     8    3   37 1
     9    4    5 1
    10    4   38 1
    11    4   39 1
    12    5    6 1
    13    6   11 ar
    14    6    7 ar
    15    7    8 ar
    16    7   40 1
    17    8    9 ar
    18    8   41 1
    19    9   10 ar
    20    9   42 1
    21   10   11 ar
    22   10   43 1
    23   11   12 1
    24   12   13 1
    25   12   44 1
    26   13   14 2
    27   13   15 1
    28   15   16 1
    29   16   17 1
    30   16   45 1
    31   16   46 1
    32   17   18 1
    33   17   47 1
    34   17   48 1
    35   18   19 1
    36   19   20 2
    37   19   21 1
    38   21   22 1
    39   21   49 1
    40   22   27 ar
    41   22   23 ar
    42   23   24 ar
    43   23   50 1
    44   24   25 ar
    45   24   51 1
    46   25   26 ar
    47   25   52 1
    48   26   27 ar
    49   26   53 1
    50   27   28 1
    51   28   29 1
    52   29   30 1
    53   29   54 1
    54   29   55 1
    55   30   31 1
    56   30   56 1
    57   30   57 1
    58   31   32 1
    59   32   58 1
    60   32   59 1
    61   32   60 1
@<TRIPOS>MOLECULE
ZINC34918990
   77    79     0     0     0
SMALL
USER_CHARGES

@<TRIPOS>ATOM
      1 C1         -2.4874    1.7346   -1.2025 C.3       1 <0>        -0.1850
      2 C2         -2.4191    0.3791   -0.4962 C.3       1 <0>        -0.0177
      3 N1         -1.6226   -0.5543   -1.3038 N.4       1 <0>        -0.3815
      4 C3         -0.2336   -0.0810   -1.3715 C.3       1 <0>        -0.0134
      5 C4          0.5711   -0.9926   -2.3001 C.3       1 <0>        -0.1890
      6 C5         -1.6562   -1.8872   -0.6871 C.3       1 <0>        -0.0383
      7 C6         -3.0857   -2.4311   -0.7258 C.3       1 <0>         0.1152
      8 N2         -3.1132   -3.7741   -0.1410 N.am      1 <0>        -0.6107
      9 C7         -2.9158   -5.0355   -0.8648 C.3       1 <0>         0.2670
     10 H1         -1.9261   -5.0548   -1.3210 H         1 <0>         0.0718
     11 C8         -3.0349   -6.1349    0.1647 C.2       1 <0>        -0.4783
     12 C9         -2.9114   -7.5760   -0.0765 C.2       1 <0>         0.4860
     13 C10        -2.9817   -8.5223    1.0541 C.ar      1 <0>        -0.1236
     14 C11        -4.1511   -9.2537    1.2846 C.ar      1 <0>        -0.0478
     15 C12        -4.2123  -10.1354    2.3398 C.ar      1 <0>        -0.2143
     16 C13        -3.1135  -10.2990    3.1764 C.ar      1 <0>         0.1304
     17 C14        -1.9491   -9.5735    2.9511 C.ar      1 <0>        -0.1525
     18 C15        -1.8774   -8.6941    1.8941 C.ar      1 <0>        -0.0032
     19 C16        -0.6125   -7.9131    1.6469 C.3       1 <0>        -0.1082
     20 O1         -3.1781  -11.1690    4.2158 O.3       1 <0>        -0.3139
     21 C17        -4.3613  -11.9629    4.3247 C.3       1 <0>         0.0866
     22 C18        -4.2703  -12.8344    5.5508 C.2       1 <0>        -0.1538
     23 C19        -5.2995  -12.9449    6.3537 C.2       1 <0>        -0.1740
     24 O2         -2.7509   -7.9919   -1.2090 O.2       1 <0>        -0.5169
     25 C20        -3.2768   -5.5332    1.3525 C.2       1 <0>         0.2760
     26 O3         -3.4483   -6.1706    2.5336 O.3       1 <0>        -0.5953
     27 C21        -3.3181   -4.0690    1.1556 C.2       1 <0>         0.5113
     28 O4         -3.5112   -3.2525    2.0343 O.2       1 <0>        -0.5224
     29 C22        -3.9777   -5.1980   -1.9217 C.ar      1 <0>        -0.0733
     30 C23        -5.3005   -4.9368   -1.6163 C.ar      1 <0>        -0.0956
     31 C24        -6.2783   -5.0845   -2.5823 C.ar      1 <0>        -0.1758
     32 C25        -5.9335   -5.4947   -3.8601 C.ar      1 <0>         0.0970
     33 C26        -4.6019   -5.7571   -4.1677 C.ar      1 <0>         0.0977
     34 C27        -3.6262   -5.6025   -3.1960 C.ar      1 <0>        -0.1461
     35 O5         -4.2585   -6.1599   -5.4204 O.3       1 <0>        -0.3084
     36 C28        -2.8916   -6.5171   -5.6350 C.3       1 <0>         0.0271
     37 O6         -6.8942   -5.6408   -4.8115 O.3       1 <0>        -0.3021
     38 C29        -8.2395   -5.3543   -4.4243 C.3       1 <0>         0.0869
     39 C30        -9.1574   -5.5701   -5.5998 C.2       1 <0>        -0.1569
     40 C31       -10.2848   -6.2180   -5.4403 C.2       1 <0>        -0.1697
     41 H2         -3.0784    2.4272   -0.6033 H         1 <0>         0.1043
     42 H3         -1.4795    2.1306   -1.3270 H         1 <0>         0.0783
     43 H4         -2.9529    1.6117   -2.1804 H         1 <0>         0.0794
     44 H5         -1.9537    0.5020    0.4818 H         1 <0>         0.1306
     45 H6         -3.4270   -0.0169   -0.3717 H         1 <0>         0.1329
     46 H7         -0.2154    0.9381   -1.7576 H         1 <0>         0.1304
     47 H8          0.2056   -0.0995   -0.3741 H         1 <0>         0.1281
     48 H9          0.5732   -2.0070   -1.9011 H         1 <0>         0.0825
     49 H10         0.1177   -0.9930   -3.2913 H         1 <0>         0.0797
     50 H11         1.5958   -0.6274   -2.3694 H         1 <0>         0.1037
     51 H12        -0.9969   -2.5587   -1.2370 H         1 <0>         0.1361
     52 H13        -1.3220   -1.8171    0.3481 H         1 <0>         0.1336
     53 H14        -3.7406   -1.7728   -0.1549 H         1 <0>         0.0975
     54 H15        -3.4289   -2.4778   -1.7593 H         1 <0>         0.0973
     55 H16        -5.0051   -9.1267    0.6358 H         1 <0>         0.1172
     56 H17        -5.1150  -10.7007    2.5185 H         1 <0>         0.1221
     57 H18        -1.0983   -9.7030    3.6035 H         1 <0>         0.1256
     58 H19        -0.6254   -7.0018    2.2449 H         1 <0>         0.0757
     59 H20         0.2493   -8.5191    1.9266 H         1 <0>         0.0620
     60 H21        -0.5465   -7.6534    0.5903 H         1 <0>         0.0631
     61 H22        -5.2305  -11.3103    4.4064 H         1 <0>         0.0666
     62 H23        -4.4603  -12.5908    3.4392 H         1 <0>         0.0706
     63 H24        -3.3566  -13.3679    5.7675 H         1 <0>         0.1190
     64 H25        -5.2343  -13.5694    7.2324 H         1 <0>         0.1070
     65 H26        -6.2132  -12.4114    6.1369 H         1 <0>         0.0993
     66 H27        -5.5707   -4.6171   -0.6207 H         1 <0>         0.1189
     67 H28        -7.3111   -4.8805   -2.3409 H         1 <0>         0.1302
     68 H29        -2.5916   -5.8019   -3.4331 H         1 <0>         0.1330
     69 H30        -2.7697   -6.8939   -6.6505 H         1 <0>         0.0973
     70 H31        -2.2604   -5.6395   -5.4949 H         1 <0>         0.0483
     71 H32        -2.6020   -7.2903   -4.9234 H         1 <0>         0.0613
     72 H33        -8.5317   -6.0160   -3.6089 H         1 <0>         0.0665
     73 H34        -8.3097   -4.3179   -4.0940 H         1 <0>         0.0683
     74 H35        -8.8858   -5.1906   -6.5738 H         1 <0>         0.1192
     75 H36       -10.9426   -6.3727   -6.2828 H         1 <0>         0.1082
     76 H37       -10.5564   -6.5974   -4.4663 H         1 <0>         0.1000
     77 H38        -2.0064   -0.6051   -2.2355 H         1 <0>         0.4208
@<TRIPOS>BOND
     1    1    2 1
     2    1   41 1
     3    1   42 1
     4    1   43 1
     5    2    3 1
     6    2   44 1
     7    2   45 1
     8    3    4 1
     9    3    6 1
    10    3   77 1
    11    4    5 1
    12    4   46 1
    13    4   47 1
    14    5   48 1
    15    5   49 1
    16    5   50 1
    17    6    7 1
    18    6   51 1
    19    6   52 1
    20    7   53 1
    21    7   54 1
    22    7    8 1
    23    8   27 am
    24    8    9 1
    25    9   11 1
    26    9   29 1
    27    9   10 1
    28   11   25 2
    29   11   12 1
    30   12   24 2
    31   12   13 1
    32   13   18 ar
    33   13   14 ar
    34   14   15 ar
    35   14   55 1
    36   15   16 ar
    37   15   56 1
    38   16   17 ar
    39   16   20 1
    40   17   18 ar
    41   17   57 1
    42   18   19 1
    43   19   58 1
    44   19   59 1
    45   19   60 1
    46   20   21 1
    47   21   22 1
    48   21   61 1
    49   21   62 1
    50   22   23 2
    51   22   63 1
    52   23   64 1
    53   23   65 1
    54   25   27 1
    55   25   26 1
    56   27   28 2
    57   29   34 ar
    58   29   30 ar
    59   30   31 ar
    60   30   66 1
    61   31   32 ar
    62   31   67 1
    63   32   33 ar
    64   32   37 1
    65   33   34 ar
    66   33   35 1
    67   34   68 1
    68   35   36 1
    69   36   69 1
    70   36   70 1
    71   36   71 1
    72   37   38 1
    73   38   39 1
    74   38   72 1
    75   38   73 1
    76   39   40 2
    77   39   74 1
    78   40   75 1
    79   40   76 1
@<TRIPOS>MOLECULE
ZINC36510100
   78    79     0     0     0
SMALL
USER_CHARGES

@<TRIPOS>ATOM
      1 C1         -0.5291    1.9139   -0.2188 C.3       1 <0>        -0.1545
      2 C2         -0.4093    0.3930   -0.1033 C.3       1 <0>        -0.1241
      3 C3         -1.8052   -0.2326   -0.1362 C.3       1 <0>        -0.1195
      4 C4         -1.6854   -1.7535   -0.0207 C.3       1 <0>        -0.1168
      5 C5         -3.0813   -2.3790   -0.0536 C.3       1 <0>        -0.1364
      6 C6         -2.9614   -3.8999    0.0619 C.3       1 <0>         0.1049
      7 N1         -4.2995   -4.4899    0.1499 N.am      1 <0>        -0.5890
      8 C7         -4.9636   -4.9830   -1.0592 C.3       1 <0>         0.1773
      9 H1         -5.2642   -6.0202   -0.9114 H         1 <0>         0.1196
     10 C8         -4.0128   -4.8968   -2.2252 C.ar      1 <0>        -0.0908
     11 C9         -4.1273   -3.8629   -3.1357 C.ar      1 <0>        -0.0230
     12 C10        -3.2556   -3.7841   -4.2055 C.ar      1 <0>        -0.0418
     13 C11        -2.2687   -4.7391   -4.3656 C.ar      1 <0>        -0.0301
     14 C12        -2.1530   -5.7728   -3.4559 C.ar      1 <0>        -0.1051
     15 C13        -3.0218   -5.8491   -2.3815 C.ar      1 <0>         0.0219
     16 Cl1        -2.8725   -7.1434   -1.2343 Cl        1 <0>        -0.0181
     17 N2         -3.3790   -2.6772   -5.1802 N.pl3     1 <0>         0.0311
     18 O1         -4.2421   -1.8422   -5.0405 O.2       1 <0>        -0.1464
     19 O2         -2.6167   -2.6079   -6.1160 O.3       1 <0>        -0.1448
     20 C14        -6.1821   -4.1422   -1.3415 C.2       1 <0>         0.5090
     21 O3         -6.3805   -3.1291   -0.7049 O.2       1 <0>        -0.5030
     22 N3         -7.0512   -4.5161   -2.3012 N.am      1 <0>        -0.7268
     23 C15        -8.1757   -3.6447   -2.6510 C.3       1 <0>         0.1489
     24 C16        -9.3421   -3.9094   -1.6968 C.3       1 <0>        -0.1281
     25 C17       -10.5165   -2.9993   -2.0621 C.3       1 <0>        -0.1172
     26 C18       -10.9573   -3.2873   -3.4986 C.3       1 <0>        -0.1223
     27 C19        -9.7909   -3.0226   -4.4528 C.3       1 <0>        -0.1155
     28 C20        -8.6166   -3.9327   -4.0875 C.3       1 <0>        -0.1262
     29 C21        -4.9195   -4.5791    1.3433 C.2       1 <0>         0.5641
     30 O4         -6.0302   -5.0688    1.4164 O.2       1 <0>        -0.5317
     31 C22        -4.2526   -4.0840    2.5574 C.2       1 <0>        -0.2220
     32 C23        -4.8644   -4.1720    3.7350 C.2       1 <0>        -0.0517
     33 C24        -4.1812   -3.6648    4.9788 C.3       1 <0>        -0.1005
     34 C25        -5.0872   -2.6514    5.6811 C.3       1 <0>        -0.1173
     35 C26        -4.3936   -2.1364    6.9439 C.3       1 <0>        -0.1200
     36 C27        -5.2995   -1.1230    7.6461 C.3       1 <0>        -0.1265
     37 C28        -4.6059   -0.6081    8.9089 C.3       1 <0>        -0.1541
     38 H2          0.4654    2.3595   -0.1953 H         1 <0>         0.0540
     39 H3         -1.0197    2.1694   -1.1580 H         1 <0>         0.0538
     40 H4         -1.1184    2.2963    0.6147 H         1 <0>         0.0540
     41 H5          0.1800    0.0106   -0.9367 H         1 <0>         0.0591
     42 H6          0.0813    0.1374    0.8360 H         1 <0>         0.0609
     43 H7         -2.3944    0.1498    0.6973 H         1 <0>         0.0636
     44 H8         -2.2958    0.0230   -1.0754 H         1 <0>         0.0604
     45 H9         -1.0961   -2.1359   -0.8542 H         1 <0>         0.0584
     46 H10        -1.1948   -2.0090    0.9185 H         1 <0>         0.0652
     47 H11        -3.6705   -1.9966    0.7798 H         1 <0>         0.0751
     48 H12        -3.5718   -2.1235   -0.9929 H         1 <0>         0.0629
     49 H13        -2.4487   -4.2917   -0.8166 H         1 <0>         0.0751
     50 H14        -2.3933   -4.1527    0.9571 H         1 <0>         0.0890
     51 H15        -4.8982   -3.1169   -3.0113 H         1 <0>         0.1622
     52 H16        -1.5883   -4.6773   -5.2021 H         1 <0>         0.1690
     53 H17        -1.3823   -6.5189   -3.5813 H         1 <0>         0.1661
     54 H18        -6.9323   -5.3623   -2.7604 H         1 <0>         0.3981
     55 H19        -7.8674   -2.6026   -2.5676 H         1 <0>         0.0890
     56 H20        -9.6504   -4.9515   -1.7802 H         1 <0>         0.0627
     57 H21        -9.0280   -3.7042   -0.6734 H         1 <0>         0.0699
     58 H22       -11.3474   -3.1878   -1.3823 H         1 <0>         0.0651
     59 H23       -10.2081   -1.9571   -1.9787 H         1 <0>         0.0643
     60 H24       -11.2656   -4.3295   -3.5820 H         1 <0>         0.0622
     61 H25       -11.7939   -2.6389   -3.7589 H         1 <0>         0.0647
     62 H26       -10.1050   -3.2278   -5.4762 H         1 <0>         0.0681
     63 H27        -9.4826   -1.9805   -4.3694 H         1 <0>         0.0669
     64 H28        -7.7856   -3.7442   -4.7673 H         1 <0>         0.0675
     65 H29        -8.9249   -4.9749   -4.1709 H         1 <0>         0.0678
     66 H30        -3.2662   -3.6490    2.4925 H         1 <0>         0.1282
     67 H31        -5.8508   -4.6069    3.7999 H         1 <0>         0.1261
     68 H32        -3.9817   -4.5001    5.6500 H         1 <0>         0.0839
     69 H33        -3.2412   -3.1846    4.7069 H         1 <0>         0.0729
     70 H34        -5.2867   -1.8161    5.0098 H         1 <0>         0.0653
     71 H35        -6.0272   -3.1316    5.9530 H         1 <0>         0.0665
     72 H36        -4.1940   -2.9717    7.6151 H         1 <0>         0.0627
     73 H37        -3.4536   -1.6562    6.6720 H         1 <0>         0.0622
     74 H38        -5.4991   -0.2877    6.9749 H         1 <0>         0.0612
     75 H39        -6.2395   -1.6032    7.9180 H         1 <0>         0.0614
     76 H40        -4.4063   -1.4434    9.5802 H         1 <0>         0.0535
     77 H41        -3.6659   -0.1279    8.6370 H         1 <0>         0.0534
     78 H42        -5.2513    0.1139    9.4092 H         1 <0>         0.0539
@<TRIPOS>BOND
     1    1    2 1
     2    1   38 1
     3    1   39 1
     4    1   40 1
     5    2    3 1
     6    2   41 1
     7    2   42 1
     8    3    4 1
     9    3   43 1
    10    3   44 1
    11    4    5 1
    12    4   45 1
    13    4   46 1
    14    5    6 1
    15    5   47 1
    16    5   48 1
    17    6    7 1
    18    6   49 1
    19    6   50 1
    20    7    8 1
    21    7   29 am
    22    8    9 1
    23    8   10 1
    24    8   20 1
    25   10   15 ar
    26   10   11 ar
    27   11   12 ar
    28   11   51 1
    29   12   13 ar
    30   12   17 1
    31   13   14 ar
    32   13   52 1
    33   14   15 ar
    34   14   53 1
    35   15   16 1
    36   17   18 2
    37   17   19 1
    38   20   21 2
    39   20   22 am
    40   22   23 1
    41   22   54 1
    42   23   28 1
    43   23   24 1
    44   23   55 1
    45   24   25 1
    46   24   56 1
    47   24   57 1
    48   25   26 1
    49   25   58 1
    50   25   59 1
    51   26   27 1
    52   26   60 1
    53   26   61 1
    54   27   28 1
    55   27   62 1
    56   27   63 1
    57   28   64 1
    58   28   65 1
    59   29   30 2
    60   29   31 1
    61   31   32 2
    62   31   66 1
    63   32   33 1
    64   32   67 1
    65   33   34 1
    66   33   68 1
    67   33   69 1
    68   34   35 1
    69   34   70 1
    70   34   71 1
    71   35   36 1
    72   35   72 1
    73   35   73 1
    74   36   37 1
    75   36   74 1
    76   36   75 1
    77   37   76 1
    78   37   77 1
    79   37   78 1
@<TRIPOS>MOLECULE
ZINC36555523
   81    83     0     0     0
SMALL
USER_CHARGES

@<TRIPOS>ATOM
      1 C1         -0.1672    1.5419    0.4899 C.3       1 <0>        -0.1507
      2 C2         -0.1038    0.0168    0.3847 C.3       1 <0>        -0.1213
      3 C3         -1.5239   -0.5510    0.3436 C.3       1 <0>        -0.1136
      4 C4         -1.4605   -2.0761    0.2384 C.3       1 <0>        -0.1113
      5 C5         -2.8806   -2.6439    0.1974 C.3       1 <0>        -0.1289
      6 C6         -2.8173   -4.1690    0.0922 C.3       1 <0>         0.1239
      7 H1         -2.2048   -4.4489   -0.7650 H         1 <0>         0.1258
      8 C7         -4.2093   -4.7187   -0.0842 C.2       1 <0>         0.5071
      9 O1         -4.7085   -5.3970    0.7885 O.2       1 <0>        -0.5309
     10 N1         -4.8996   -4.4564   -1.2117 N.am      1 <0>        -0.7266
     11 C8         -6.2528   -4.9908   -1.3831 C.3       1 <0>         0.1183
     12 C9         -6.8077   -4.5489   -2.7388 C.3       1 <0>        -0.1331
     13 C10        -8.2210   -5.1070   -2.9178 C.3       1 <0>        -0.1215
     14 C11        -8.7758   -4.6651   -4.2734 C.3       1 <0>        -0.1536
     15 N2         -2.2264   -4.7187    1.3148 N.am      1 <0>        -0.5832
     16 C12        -2.8728   -4.4872    2.6090 C.3       1 <0>         0.1926
     17 C13        -2.2385   -3.2970    3.2815 C.2       1 <0>        -0.0471
     18 C14        -2.7016   -2.0346    3.2469 C.2       1 <0>        -0.1785
     19 C15        -1.8046   -1.2483    4.0059 C.2       1 <0>        -0.2144
     20 C16        -0.8470   -2.0772    4.4588 C.2       1 <0>         0.0074
     21 O2         -1.1181   -3.3179    4.0218 O.3       1 <0>        -0.1640
     22 C17         0.3277   -1.6819    5.3160 C.3       1 <0>        -0.0754
     23 C18        -1.0882   -5.4375    1.2491 C.2       1 <0>         0.5237
     24 O3         -0.5033   -5.5516    0.1928 O.2       1 <0>        -0.5193
     25 C19        -0.5424   -6.0993    2.4881 C.3       1 <0>         0.1397
     26 H2         -0.7415   -5.4758    3.3596 H         1 <0>         0.1074
     27 C20        -1.1956   -7.4851    2.6740 C.3       1 <0>        -0.1224
     28 C21        -0.0204   -8.3569    3.1900 C.3       1 <0>        -0.1299
     29 C22         1.1757   -7.7626    2.4051 C.3       1 <0>         0.1035
     30 N3          0.9054   -6.3113    2.3452 N.am      1 <0>        -0.5850
     31 C23         1.8290   -5.3429    2.1848 C.2       1 <0>         0.6710
     32 O4          1.4873   -4.1774    2.1486 O.2       1 <0>        -0.5538
     33 O5          3.1303   -5.6670    2.0648 O.3       1 <0>        -0.3554
     34 C24         4.0543   -4.5898    1.8976 C.3       1 <0>         0.1307
     35 C25         5.4522   -5.1407    1.7813 C.ar      1 <0>        -0.0988
     36 C26         6.2195   -5.3241    2.9164 C.ar      1 <0>        -0.0937
     37 C27         7.5017   -5.8294    2.8098 C.ar      1 <0>        -0.1234
     38 C28         8.0166   -6.1516    1.5680 C.ar      1 <0>        -0.1078
     39 C29         7.2490   -5.9690    0.4330 C.ar      1 <0>        -0.1229
     40 C30         5.9652   -5.4678    0.5400 C.ar      1 <0>        -0.0929
     41 H3          0.8445    1.9464    0.5191 H         1 <0>         0.0517
     42 H4         -0.6945    1.9442   -0.3751 H         1 <0>         0.0515
     43 H5         -0.6968    1.8215    1.4006 H         1 <0>         0.0522
     44 H6          0.4258   -0.2628   -0.5261 H         1 <0>         0.0569
     45 H7          0.4235   -0.3854    1.2496 H         1 <0>         0.0608
     46 H8         -2.0535   -0.2714    1.2544 H         1 <0>         0.0631
     47 H9         -2.0512   -0.1487   -0.5213 H         1 <0>         0.0561
     48 H10        -0.9310   -2.3557   -0.6723 H         1 <0>         0.0582
     49 H11        -0.9332   -2.4784    1.1034 H         1 <0>         0.0730
     50 H12        -3.4102   -2.3643    1.1081 H         1 <0>         0.0799
     51 H13        -3.4080   -2.2417   -0.6676 H         1 <0>         0.0759
     52 H14        -4.5003   -3.9139   -1.9096 H         1 <0>         0.4024
     53 H15        -6.2216   -6.0795   -1.3406 H         1 <0>         0.0687
     54 H16        -6.8956   -4.6144   -0.5873 H         1 <0>         0.0695
     55 H17        -6.8388   -3.4602   -2.7812 H         1 <0>         0.0701
     56 H18        -6.1649   -4.9253   -3.5346 H         1 <0>         0.0698
     57 H19        -8.1898   -6.1957   -2.8753 H         1 <0>         0.0653
     58 H20        -8.8637   -4.7306   -2.1220 H         1 <0>         0.0655
     59 H21        -9.7827   -5.0627   -4.4010 H         1 <0>         0.0569
     60 H22        -8.8070   -3.5764   -4.3159 H         1 <0>         0.0548
     61 H23        -8.1331   -5.0415   -5.0692 H         1 <0>         0.0547
     62 H24        -3.9346   -4.2946    2.4555 H         1 <0>         0.1262
     63 H25        -2.7507   -5.3683    3.2389 H         1 <0>         0.0926
     64 H26        -3.5882   -1.6880    2.7368 H         1 <0>         0.1443
     65 H27        -1.8747   -0.1859    4.1869 H         1 <0>         0.1443
     66 H28         0.0550   -1.7670    6.3679 H         1 <0>         0.0795
     67 H29         1.1699   -2.3408    5.1046 H         1 <0>         0.0751
     68 H30         0.6080   -0.6518    5.0956 H         1 <0>         0.0869
     69 H31        -1.9949   -7.4386    3.4135 H         1 <0>         0.0979
     70 H32        -1.5697   -7.8657    1.7236 H         1 <0>         0.0862
     71 H33         0.1165   -8.2319    4.2641 H         1 <0>         0.0840
     72 H34        -0.1715   -9.4061    2.9364 H         1 <0>         0.0946
     73 H35         2.1090   -7.9518    2.9354 H         1 <0>         0.0871
     74 H36         1.2170   -8.1838    1.4006 H         1 <0>         0.0750
     75 H37         3.8059   -4.0352    0.9927 H         1 <0>         0.0764
     76 H38         3.9965   -3.9245    2.7590 H         1 <0>         0.0762
     77 H39         5.8172   -5.0724    3.8866 H         1 <0>         0.1240
     78 H40         8.1014   -5.9721    3.6966 H         1 <0>         0.1260
     79 H41         9.0187   -6.5457    1.4846 H         1 <0>         0.1250
     80 H42         7.6514   -6.2205   -0.5372 H         1 <0>         0.1260
     81 H43         5.3642   -5.3286   -0.3464 H         1 <0>         0.1243
@<TRIPOS>BOND
     1    1    2 1
     2    1   41 1
     3    1   42 1
     4    1   43 1
     5    2    3 1
     6    2   44 1
     7    2   45 1
     8    3    4 1
     9    3   46 1
    10    3   47 1
    11    4    5 1
    12    4   48 1
    13    4   49 1
    14    5    6 1
    15    5   50 1
    16    5   51 1
    17    6    7 1
    18    6    8 1
    19    6   15 1
    20    8    9 2
    21    8   10 am
    22   10   11 1
    23   10   52 1
    24   11   12 1
    25   11   53 1
    26   11   54 1
    27   12   13 1
    28   12   55 1
    29   12   56 1
    30   13   14 1
    31   13   57 1
    32   13   58 1
    33   14   59 1
    34   14   60 1
    35   14   61 1
    36   15   16 1
    37   15   23 am
    38   16   17 1
    39   16   62 1
    40   16   63 1
    41   17   21 1
    42   17   18 2
    43   18   19 1
    44   18   64 1
    45   19   20 2
    46   19   65 1
    47   20   21 1
    48   20   22 1
    49   22   66 1
    50   22   67 1
    51   22   68 1
    52   23   24 2
    53   23   25 1
    54   25   26 1
    55   25   30 1
    56   25   27 1
    57   27   28 1
    58   27   69 1
    59   27   70 1
    60   28   29 1
    61   28   71 1
    62   28   72 1
    63   29   30 1
    64   29   73 1
    65   29   74 1
    66   30   31 am
    67   31   32 2
    68   31   33 1
    69   33   34 1
    70   34   35 1
    71   34   75 1
    72   34   76 1
    73   35   40 ar
    74   35   36 ar
    75   36   37 ar
    76   36   77 1
    77   37   38 ar
    78   37   78 1
    79   38   39 ar
    80   38   79 1
    81   39   40 ar
    82   39   80 1
    83   40   81 1
@<TRIPOS>MOLECULE
ZINC40020270
   83    85     0     0     0
SMALL
USER_CHARGES

@<TRIPOS>ATOM
      1 C1          0.5742    0.5722   -0.1459 C.3       1 <0>        -0.1568
      2 C2          0.7057   -0.9519   -0.1728 C.3       1 <0>        -0.1224
      3 C3          1.2791   -1.4380    1.1598 C.3       1 <0>        -0.1463
      4 C4          1.4105   -2.9621    1.1329 C.3       1 <0>        -0.0173
      5 N1          2.0797   -3.4176    2.3587 N.4       1 <0>        -0.3848
      6 C5          1.2165   -3.1488    3.5166 C.3       1 <0>        -0.0126
      7 C6          1.9746   -3.4757    4.8047 C.3       1 <0>        -0.1508
      8 C7          1.1270   -3.0701    6.0122 C.3       1 <0>        -0.1192
      9 C8          1.8851   -3.3970    7.3004 C.3       1 <0>        -0.1587
     10 C9          2.3406   -4.8604    2.2670 C.3       1 <0>        -0.0091
     11 C10         3.3382   -5.1274    1.1382 C.3       1 <0>        -0.1719
     12 C11         3.6100   -6.6301    1.0426 C.3       1 <0>         0.1422
     13 N2          4.5653   -6.8858   -0.0382 N.am      1 <0>        -0.6174
     14 C12         4.2303   -7.1445   -1.4435 C.3       1 <0>         0.2796
     15 H1          3.6999   -6.2909   -1.8655 H         1 <0>         0.0747
     16 C13         5.5453   -7.3450   -2.1601 C.2       1 <0>        -0.4913
     17 C14         6.5208   -7.2089   -1.2316 C.2       1 <0>         0.2498
     18 C15         5.9050   -6.9193    0.0807 C.2       1 <0>         0.5151
     19 O1          6.5179   -6.7406    1.1144 O.2       1 <0>        -0.5328
     20 O2          7.8485   -7.3164   -1.4679 O.3       1 <0>        -0.6520
     21 C16         5.7291   -7.6320   -3.5857 C.2       1 <0>         0.5212
     22 O3          5.5841   -6.7471   -4.4080 O.2       1 <0>        -0.4762
     23 C17         6.0907   -8.9970   -4.0245 C.ar      1 <0>        -0.0994
     24 C18         6.1566  -10.0377   -3.0951 C.ar      1 <0>        -0.0813
     25 C19         6.4943  -11.3097   -3.5080 C.ar      1 <0>        -0.1009
     26 C20         6.7689  -11.5589   -4.8406 C.ar      1 <0>        -0.1901
     27 C21         6.7060  -10.5309   -5.7718 C.ar      1 <0>         0.1083
     28 C22         6.3620   -9.2515   -5.3696 C.ar      1 <0>        -0.1057
     29 O4          6.9768  -10.7819   -7.0798 O.3       1 <0>        -0.3178
     30 C23         7.3190  -12.1257   -7.4252 C.3       1 <0>         0.0549
     31 C24         7.5877  -12.2131   -8.9289 C.3       1 <0>        -0.1518
     32 C25         3.3838   -8.3863   -1.5543 C.ar      1 <0>        -0.1077
     33 C26         3.4623   -9.3655   -0.5828 C.ar      1 <0>        -0.0737
     34 C27         2.6863  -10.5052   -0.6841 C.ar      1 <0>        -0.1564
     35 C28         1.8295  -10.6679   -1.7572 C.ar      1 <0>        -0.0862
     36 C29         1.7470   -9.6917   -2.7308 C.ar      1 <0>        -0.2073
     37 C30         2.5209   -8.5446   -2.6287 C.ar      1 <0>         0.1372
     38 O5          2.4374   -7.5800   -3.5825 O.3       1 <0>        -0.3032
     39 C31         1.4541   -7.7607   -4.6036 C.3       1 <0>         0.0570
     40 C32         1.5746   -6.6349   -5.6326 C.3       1 <0>        -0.1514
     41 H2          1.5559    1.0188    0.0118 H         1 <0>         0.0589
     42 H3          0.1657    0.9184   -1.0952 H         1 <0>         0.0654
     43 H4         -0.0927    0.8650    0.6651 H         1 <0>         0.0568
     44 H5         -0.2760   -1.3986   -0.3304 H         1 <0>         0.0722
     45 H6          1.3726   -1.2448   -0.9837 H         1 <0>         0.0756
     46 H7          2.2608   -0.9914    1.3175 H         1 <0>         0.0852
     47 H8          0.6122   -1.1451    1.9707 H         1 <0>         0.0842
     48 H9          0.4193   -3.4113    1.0716 H         1 <0>         0.1291
     49 H10         1.9990   -3.2608    0.2653 H         1 <0>         0.1357
     50 H11         0.9306   -2.0969    3.5202 H         1 <0>         0.1296
     51 H12         0.3218   -3.7683    3.4544 H         1 <0>         0.1284
     52 H13         2.1767   -4.5460    4.8457 H         1 <0>         0.0890
     53 H14         2.9164   -2.9272    4.8212 H         1 <0>         0.0860
     54 H15         0.9248   -1.9998    5.9712 H         1 <0>         0.0709
     55 H16         0.1852   -3.6186    5.9957 H         1 <0>         0.0719
     56 H17         2.8269   -2.8485    7.3168 H         1 <0>         0.0592
     57 H18         1.2813   -3.1081    8.1606 H         1 <0>         0.0644
     58 H19         2.0872   -4.4673    7.3413 H         1 <0>         0.0599
     59 H20         2.7557   -5.2152    3.2103 H         1 <0>         0.1334
     60 H21         1.4083   -5.3858    2.0598 H         1 <0>         0.1305
     61 H22         2.9231   -4.7726    0.1949 H         1 <0>         0.0905
     62 H23         4.2705   -4.6021    1.3454 H         1 <0>         0.0919
     63 H24         4.0251   -6.9849    1.9860 H         1 <0>         0.0865
     64 H25         2.6777   -7.1555    0.8355 H         1 <0>         0.0851
     65 H26         5.9435   -9.8464   -2.0537 H         1 <0>         0.1301
     66 H27         6.5450  -12.1135   -2.7885 H         1 <0>         0.1234
     67 H28         7.0335  -12.5568   -5.1578 H         1 <0>         0.1242
     68 H29         6.3083   -8.4520   -6.0937 H         1 <0>         0.1343
     69 H30         8.2131  -12.4249   -6.8783 H         1 <0>         0.0603
     70 H31         6.4944  -12.7891   -7.1643 H         1 <0>         0.0589
     71 H32         6.6936  -11.9138   -9.4758 H         1 <0>         0.0651
     72 H33         8.4123  -11.5496   -9.1898 H         1 <0>         0.0663
     73 H34         7.8487  -13.2380   -9.1924 H         1 <0>         0.0764
     74 H35         4.1307   -9.2407    0.2563 H         1 <0>         0.1228
     75 H36         2.7497  -11.2698    0.0760 H         1 <0>         0.1192
     76 H37         1.2246  -11.5593   -1.8343 H         1 <0>         0.1193
     77 H38         1.0777   -9.8193   -3.5688 H         1 <0>         0.1236
     78 H39         1.6129   -8.7206   -5.0950 H         1 <0>         0.0597
     79 H40         0.4596   -7.7408   -4.1579 H         1 <0>         0.0557
     80 H41         1.5040   -5.6717   -5.1272 H         1 <0>         0.0639
     81 H42         2.5359   -6.7087   -6.1411 H         1 <0>         0.0712
     82 H43         0.7698   -6.7221   -6.3625 H         1 <0>         0.0742
     83 H44         2.9529   -2.9242    2.4685 H         1 <0>         0.4232
@<TRIPOS>BOND
     1    1    2 1
     2    1   41 1
     3    1   42 1
     4    1   43 1
     5    2    3 1
     6    2   44 1
     7    2   45 1
     8    3    4 1
     9    3   46 1
    10    3   47 1
    11    4    5 1
    12    4   48 1
    13    4   49 1
    14    5    6 1
    15    5   10 1
    16    5   83 1
    17    6    7 1
    18    6   50 1
    19    6   51 1
    20    7    8 1
    21    7   52 1
    22    7   53 1
    23    8    9 1
    24    8   54 1
    25    8   55 1
    26    9   56 1
    27    9   57 1
    28    9   58 1
    29   10   11 1
    30   10   59 1
    31   10   60 1
    32   11   12 1
    33   11   61 1
    34   11   62 1
    35   12   13 1
    36   12   63 1
    37   12   64 1
    38   13   18 am
    39   13   14 1
    40   14   15 1
    41   14   16 1
    42   14   32 1
    43   16   17 2
    44   16   21 1
    45   17   18 1
    46   17   20 1
    47   18   19 2
    48   21   22 2
    49   21   23 1
    50   23   28 ar
    51   23   24 ar
    52   24   25 ar
    53   24   65 1
    54   25   26 ar
    55   25   66 1
    56   26   27 ar
    57   26   67 1
    58   27   28 ar
    59   27   29 1
    60   28   68 1
    61   29   30 1
    62   30   31 1
    63   30   69 1
    64   30   70 1
    65   31   71 1
    66   31   72 1
    67   31   73 1
    68   32   37 ar
    69   32   33 ar
    70   33   34 ar
    71   33   74 1
    72   34   35 ar
    73   34   75 1
    74   35   36 ar
    75   35   76 1
    76   36   37 ar
    77   36   77 1
    78   37   38 1
    79   38   39 1
    80   39   40 1
    81   39   78 1
    82   39   79 1
    83   40   80 1
    84   40   81 1
    85   40   82 1
@<TRIPOS>MOLECULE
ZINC05179479
   91    92     0     0     0
SMALL
USER_CHARGES
4-oxo-4-[2,5,7,8-tetramethyl-2-(4,8,12-trimethyltridecyl)chroman-6-yl]oxy-butanoic acid
@<TRIPOS>ATOM
      1 C1          1.4872    1.5729    2.4233 C.3       1 <0>        -0.1009
      2 C2         -0.0016    1.8055    2.4036 C.ar      1 <0>        -0.1125
      3 C3         -0.7181    1.5718    1.2479 C.ar      1 <0>        -0.0506
      4 C4         -2.0876    1.7903    1.2273 C.ar      1 <0>         0.0577
      5 C5         -2.7335    2.2300    2.3719 C.ar      1 <0>        -0.0514
      6 C6         -2.0158    2.4631    3.5325 C.ar      1 <0>        -0.1535
      7 C7         -0.6476    2.2544    3.5509 C.ar      1 <0>         0.1448
      8 O1          0.0962    2.4825    4.6655 O.3       1 <0>        -0.2986
      9 C8         -0.5869    2.5763    5.9162 C.3       1 <0>         0.1171
     10 C9         -1.7637    3.5468    5.7535 C.3       1 <0>        -0.1461
     11 C10        -2.7545    2.9382    4.7580 C.3       1 <0>        -0.0747
     12 C11        -1.1090    1.1971    6.3238 C.3       1 <0>        -0.1784
     13 C12         0.3702    3.1022    6.9878 C.3       1 <0>        -0.1018
     14 C13         1.5418    2.1310    7.1461 C.3       1 <0>        -0.1212
     15 C14         2.4989    2.6569    8.2177 C.3       1 <0>        -0.1139
     16 C15         3.6705    1.6856    8.3761 C.3       1 <0>        -0.0917
     17 H1          4.1459    1.5289    7.4079 H         1 <0>         0.0692
     18 C16         3.1557    0.3490    8.9139 C.3       1 <0>        -0.1501
     19 C17         4.6895    2.2712    9.3558 C.3       1 <0>        -0.1142
     20 C18         5.9173    1.3606    9.4193 C.3       1 <0>        -0.1223
     21 C19         6.9363    1.9461   10.3990 C.3       1 <0>        -0.1146
     22 C20         8.1642    1.0355   10.4625 C.3       1 <0>        -0.0922
     23 H2          7.8522    0.0219   10.7141 H         1 <0>         0.0678
     24 C21         8.8663    1.0304    9.1032 C.3       1 <0>        -0.1502
     25 C22         9.1279    1.5528   11.5324 C.3       1 <0>        -0.1149
     26 C23        10.2950    0.5750   11.6832 C.3       1 <0>        -0.1229
     27 C24        11.2587    1.0923   12.7530 C.3       1 <0>        -0.1153
     28 C25        12.4258    0.1145   12.9039 C.3       1 <0>        -0.0986
     29 C26        13.2378    0.0856   11.6075 C.3       1 <0>        -0.1496
     30 C27        13.3233    0.5657   14.0579 C.3       1 <0>        -0.1486
     31 C28        -4.2225    2.4618    2.3511 C.3       1 <0>        -0.1145
     32 O2         -2.7958    1.5686    0.0878 O.3       1 <0>        -0.2913
     33 C29        -3.2989    0.3364   -0.0871 C.2       1 <0>         0.4535
     34 O3         -3.1136   -0.5161    0.7489 O.2       1 <0>        -0.4934
     35 C30        -4.0950    0.0164   -1.3261 C.3       1 <0>        -0.0895
     36 C31        -4.5488   -1.4440   -1.2776 C.3       1 <0>        -0.1464
     37 C32        -5.3448   -1.7640   -2.5166 C.2       1 <0>         0.4629
     38 O4         -5.5301   -0.9115   -3.3525 O.co2     1 <0>        -0.6406
     39 C33        -0.0127    1.0858    0.0080 C.3       1 <0>        -0.1195
     40 H3          2.0019    2.4894    2.1348 H         1 <0>         0.0668
     41 H4          1.7964    1.2832    3.4275 H         1 <0>         0.0698
     42 H5          1.7401    0.7780    1.7217 H         1 <0>         0.0663
     43 H6         -1.4021    4.5025    5.3741 H         1 <0>         0.0763
     44 H7         -2.2538    3.6946    6.7158 H         1 <0>         0.0824
     45 H8         -3.4881    3.6912    4.4701 H         1 <0>         0.0823
     46 H9         -3.2641    2.0949    5.2240 H         1 <0>         0.0794
     47 H10        -1.7832    0.8218    5.5539 H         1 <0>         0.0660
     48 H11        -0.2703    0.5105    6.4384 H         1 <0>         0.0691
     49 H12        -1.6454    1.2766    7.2693 H         1 <0>         0.0702
     50 H13         0.7471    4.0806    6.6898 H         1 <0>         0.0712
     51 H14        -0.1594    3.1904    7.9363 H         1 <0>         0.0796
     52 H15         1.1649    1.1526    7.4441 H         1 <0>         0.0677
     53 H16         2.0714    2.0428    6.1976 H         1 <0>         0.0701
     54 H17         2.8758    3.6353    7.9197 H         1 <0>         0.0601
     55 H18         1.9693    2.7450    9.1663 H         1 <0>         0.0593
     56 H19         3.9904   -0.3429    9.0267 H         1 <0>         0.0542
     57 H20         2.6803    0.5057    9.8821 H         1 <0>         0.0518
     58 H21         2.4298   -0.0682    8.2160 H         1 <0>         0.0560
     59 H22         4.9898    3.2630    9.0180 H         1 <0>         0.0594
     60 H23         4.2403    2.3451   10.3462 H         1 <0>         0.0592
     61 H24         5.6170    0.3687    9.7571 H         1 <0>         0.0626
     62 H25         6.3665    1.2866    8.4289 H         1 <0>         0.0631
     63 H26         7.2366    2.9380   10.0612 H         1 <0>         0.0598
     64 H27         6.4872    2.0201   11.3894 H         1 <0>         0.0591
     65 H28         9.1783    2.0441    8.8516 H         1 <0>         0.0525
     66 H29         9.7411    0.3817    9.1484 H         1 <0>         0.0541
     67 H30         8.1797    0.6619    8.3410 H         1 <0>         0.0561
     68 H31         9.5088    2.5302   11.2363 H         1 <0>         0.0600
     69 H32         8.6022    1.6405   12.4832 H         1 <0>         0.0593
     70 H33         9.9141   -0.4024   11.9793 H         1 <0>         0.0591
     71 H34        10.8207    0.4873   10.7324 H         1 <0>         0.0667
     72 H35        11.6396    2.0697   12.4569 H         1 <0>         0.0604
     73 H36        10.7330    1.1800   13.7038 H         1 <0>         0.0597
     74 H37        12.0393   -0.8831   13.1128 H         1 <0>         0.0679
     75 H38        12.5984   -0.2358   10.7853 H         1 <0>         0.0567
     76 H39        13.6243    1.0832   11.3986 H         1 <0>         0.0532
     77 H40        14.0692   -0.6110   11.7149 H         1 <0>         0.0519
     78 H41        12.7448    0.5863   14.9815 H         1 <0>         0.0531
     79 H42        14.1547   -0.1309   14.1654 H         1 <0>         0.0531
     80 H43        13.7098    1.5633   13.8490 H         1 <0>         0.0534
     81 H44        -4.4259    3.4907    2.0545 H         1 <0>         0.0777
     82 H45        -4.6864    1.7798    1.6386 H         1 <0>         0.0665
     83 H46        -4.6320    2.2824    3.3452 H         1 <0>         0.0704
     84 H47        -4.9683    0.6668   -1.3749 H         1 <0>         0.1069
     85 H48        -3.4741    0.1749   -2.2078 H         1 <0>         0.1074
     86 H49        -3.6755   -2.0944   -1.2288 H         1 <0>         0.0734
     87 H50        -5.1696   -1.6025   -0.3959 H         1 <0>         0.0730
     88 H51         0.0021   -0.0041    0.0020 H         1 <0>         0.0751
     89 H52         1.0099    1.4631    0.0003 H         1 <0>         0.0744
     90 H53        -0.5399    1.4469   -0.8751 H         1 <0>         0.0749
     91 O5         -5.8479   -2.9961   -2.6914 O.co2     1 <0>        -0.7677
@<TRIPOS>BOND
     1    1    2 1
     2    1   40 1
     3    1   41 1
     4    1   42 1
     5    2    7 ar
     6    2    3 ar
     7    3    4 ar
     8    3   39 1
     9    4    5 ar
    10    4   32 1
    11    5    6 ar
    12    5   31 1
    13    6   11 1
    14    6    7 ar
    15    7    8 1
    16    8    9 1
    17    9   10 1
    18    9   12 1
    19    9   13 1
    20   10   11 1
    21   10   43 1
    22   10   44 1
    23   11   45 1
    24   11   46 1
    25   12   47 1
    26   12   48 1
    27   12   49 1
    28   13   14 1
    29   13   50 1
    30   13   51 1
    31   14   15 1
    32   14   52 1
    33   14   53 1
    34   15   16 1
    35   15   54 1
    36   15   55 1
    37   16   17 1
    38   16   18 1
    39   16   19 1
    40   18   56 1
    41   18   57 1
    42   18   58 1
    43   19   20 1
    44   19   59 1
    45   19   60 1
    46   20   21 1
    47   20   61 1
    48   20   62 1
    49   21   22 1
    50   21   63 1
    51   21   64 1
    52   22   23 1
    53   22   24 1
    54   22   25 1
    55   24   65 1
    56   24   66 1
    57   24   67 1
    58   25   26 1
    59   25   68 1
    60   25   69 1
    61   26   27 1
    62   26   70 1
    63   26   71 1
    64   27   28 1
    65   27   72 1
    66   27   73 1
    67   28   29 1
    68   28   30 1
    69   28   74 1
    70   29   75 1
    71   29   76 1
    72   29   77 1
    73   30   78 1
    74   30   79 1
    75   30   80 1
    76   31   81 1
    77   31   82 1
    78   31   83 1
    79   32   33 1
    80   33   34 2
    81   33   35 1
    82   35   36 1
    83   35   84 1
    84   35   85 1
    85   36   37 1
    86   36   86 1
    87   36   87 1
    88   37   38 2
    89   37   91 1
    90   39   88 1
    91   39   89 1
    92   39   90 1
@<TRIPOS>MOLECULE
ZINC34971870
   79    81     0     0     0
SMALL
USER_CHARGES

@<TRIPOS>ATOM
      1 C1        -10.7179   -9.2453    6.1311 C.3       1 <0>        -0.1549
      2 C2        -10.6408   -7.7178    6.0889 C.3       1 <0>        -0.1256
      3 C3         -9.8997   -7.2793    4.8243 C.3       1 <0>        -0.1137
      4 C4         -9.8226   -5.7518    4.7821 C.3       1 <0>        -0.0875
      5 C5         -9.0926   -5.3198    3.5365 C.ar      1 <0>        -0.0536
      6 C6         -7.7181   -5.1639    3.5629 C.ar      1 <0>        -0.1218
      7 C7         -7.0437   -4.7687    2.4261 C.ar      1 <0>        -0.0560
      8 C8         -7.7511   -4.5261    1.2476 C.ar      1 <0>        -0.1380
      9 C9         -9.1376   -4.6853    1.2278 C.ar      1 <0>        -0.1183
     10 C10        -9.7992   -5.0864    2.3701 C.ar      1 <0>        -0.1284
     11 C11        -7.0350   -4.1019    0.0258 C.2       1 <0>         0.5622
     12 O1         -6.0122   -3.4512    0.1157 O.2       1 <0>        -0.5260
     13 N1         -7.5162   -4.4366   -1.1879 N.am      1 <0>        -0.6014
     14 C12        -8.8195   -5.0957   -1.3028 C.3       1 <0>         0.0734
     15 C13        -9.8832   -4.0610   -1.6756 C.3       1 <0>        -0.1477
     16 C14       -11.2443   -4.7494   -1.7957 C.3       1 <0>        -0.1199
     17 C15       -12.3079   -3.7148   -2.1685 C.3       1 <0>        -0.1168
     18 C16       -13.6690   -4.4031   -2.2885 C.3       1 <0>        -0.1354
     19 C17       -14.7327   -3.3685   -2.6614 C.3       1 <0>         0.1077
     20 N2        -16.0360   -4.0276   -2.7763 N.pl3     1 <0>        -0.7013
     21 C18       -17.1633   -3.2854   -3.1086 C.ar      1 <0>         0.4423
     22 C19       -17.0459   -1.9178   -3.3363 C.ar      1 <0>        -0.1980
     23 C20       -18.1757   -1.1915   -3.6661 C.ar      1 <0>         0.0384
     24 C21       -19.3898   -1.8596   -3.7576 C.ar      1 <0>        -0.1703
     25 C22       -19.4336   -3.2182   -3.5186 C.ar      1 <0>         0.1485
     26 N3        -18.3383   -3.8870   -3.2109 N.ar      1 <0>        -0.5042
     27 C23        -6.7360   -4.1413   -2.3921 C.3       1 <0>         0.1587
     28 C24        -5.9036   -5.3429   -2.7586 C.ar      1 <0>        -0.1105
     29 C25        -4.6243   -5.4763   -2.2516 C.ar      1 <0>        -0.0904
     30 C26        -3.8567   -6.5767   -2.5848 C.ar      1 <0>        -0.1732
     31 C27        -4.3693   -7.5493   -3.4282 C.ar      1 <0>         0.1079
     32 C28        -5.6571   -7.4152   -3.9381 C.ar      1 <0>         0.0950
     33 C29        -6.4229   -6.3122   -3.5963 C.ar      1 <0>        -0.1588
     34 O2         -6.1646   -8.3671   -4.7662 O.3       1 <0>        -0.3048
     35 C30        -7.4932   -8.1634   -5.2514 C.3       1 <0>         0.0279
     36 O3         -3.6153   -8.6322   -3.7572 O.3       1 <0>        -0.3061
     37 C31        -2.3026   -8.7032   -3.1971 C.3       1 <0>         0.0248
     38 H1        -11.2459   -9.5577    7.0320 H         1 <0>         0.0558
     39 H2        -11.2528   -9.6065    5.2528 H         1 <0>         0.0525
     40 H3         -9.7098   -9.6599    6.1386 H         1 <0>         0.0551
     41 H4        -11.6489   -7.3032    6.0815 H         1 <0>         0.0609
     42 H5        -10.1059   -7.3566    6.9673 H         1 <0>         0.0637
     43 H6         -8.8916   -7.6938    4.8318 H         1 <0>         0.0653
     44 H7        -10.4346   -7.6405    3.9460 H         1 <0>         0.0623
     45 H8        -10.8307   -5.3372    4.7747 H         1 <0>         0.0740
     46 H9         -9.2877   -5.3906    5.6605 H         1 <0>         0.0770
     47 H10        -7.1719   -5.3516    4.4756 H         1 <0>         0.1307
     48 H11        -5.9708   -4.6470    2.4481 H         1 <0>         0.1335
     49 H12        -9.6909   -4.4992    0.3192 H         1 <0>         0.1553
     50 H13       -10.8715   -5.2143    2.3549 H         1 <0>         0.1249
     51 H14        -8.7719   -5.8626   -2.0759 H         1 <0>         0.0764
     52 H15        -9.0790   -5.5563   -0.3496 H         1 <0>         0.1130
     53 H16        -9.9308   -3.2941   -0.9025 H         1 <0>         0.0744
     54 H17        -9.6236   -3.6005   -2.6288 H         1 <0>         0.0753
     55 H18       -11.1967   -5.5163   -2.5688 H         1 <0>         0.0698
     56 H19       -11.5038   -5.2100   -0.8425 H         1 <0>         0.0688
     57 H20       -12.3555   -2.9478   -1.3954 H         1 <0>         0.0721
     58 H21       -12.0484   -3.2542   -3.1217 H         1 <0>         0.0719
     59 H22       -13.6214   -5.1701   -3.0616 H         1 <0>         0.0780
     60 H23       -13.9286   -4.8637   -1.3353 H         1 <0>         0.0783
     61 H24       -14.7803   -2.6016   -1.8883 H         1 <0>         0.0893
     62 H25       -14.4732   -2.9079   -3.6146 H         1 <0>         0.0891
     63 H26       -16.1123   -4.9820   -2.6205 H         1 <0>         0.4190
     64 H27       -16.0857   -1.4300   -3.2562 H         1 <0>         0.1775
     65 H28       -18.1152   -0.1287   -3.8481 H         1 <0>         0.1747
     66 H29       -20.2907   -1.3213   -4.0128 H         1 <0>         0.1812
     67 H30       -20.3757   -3.7416   -3.5883 H         1 <0>         0.2070
     68 H31        -7.4117   -3.9032   -3.2136 H         1 <0>         0.0842
     69 H32        -6.0818   -3.2905   -2.2017 H         1 <0>         0.1001
     70 H33        -4.2236   -4.7189   -1.5941 H         1 <0>         0.1319
     71 H34        -2.8574   -6.6781   -2.1879 H         1 <0>         0.1375
     72 H35        -7.4241   -6.2076   -3.9877 H         1 <0>         0.1314
     73 H36        -7.7746   -8.9935   -5.8993 H         1 <0>         0.1008
     74 H37        -8.1833   -8.1096   -4.4094 H         1 <0>         0.0509
     75 H38        -7.5351   -7.2318   -5.8156 H         1 <0>         0.0537
     76 H39        -1.7243   -7.8359   -3.5156 H         1 <0>         0.0569
     77 H40        -2.3719   -8.7141   -2.1093 H         1 <0>         0.0559
     78 H41        -1.8104   -9.6136   -3.5390 H         1 <0>         0.1034
     79 H42       -18.3961   -4.8421   -3.0517 H         1 <0>         0.4418
@<TRIPOS>BOND
     1    1    2 1
     2    1   38 1
     3    1   39 1
     4    1   40 1
     5    2    3 1
     6    2   41 1
     7    2   42 1
     8    3    4 1
     9    3   43 1
    10    3   44 1
    11    4    5 1
    12    4   45 1
    13    4   46 1
    14    5   10 ar
    15    5    6 ar
    16    6    7 ar
    17    6   47 1
    18    7    8 ar
    19    7   48 1
    20    8    9 ar
    21    8   11 1
    22    9   10 ar
    23    9   49 1
    24   10   50 1
    25   11   12 2
    26   11   13 am
    27   13   14 1
    28   13   27 1
    29   14   15 1
    30   14   51 1
    31   14   52 1
    32   15   16 1
    33   15   53 1
    34   15   54 1
    35   16   17 1
    36   16   55 1
    37   16   56 1
    38   17   18 1
    39   17   57 1
    40   17   58 1
    41   18   19 1
    42   18   59 1
    43   18   60 1
    44   19   20 1
    45   19   61 1
    46   19   62 1
    47   20   21 1
    48   20   63 1
    49   21   26 ar
    50   21   22 ar
    51   22   23 ar
    52   22   64 1
    53   23   24 ar
    54   23   65 1
    55   24   25 ar
    56   24   66 1
    57   25   26 ar
    58   25   67 1
    59   26   79 1
    60   27   28 1
    61   27   68 1
    62   27   69 1
    63   28   33 ar
    64   28   29 ar
    65   29   30 ar
    66   29   70 1
    67   30   31 ar
    68   30   71 1
    69   31   32 ar
    70   31   36 1
    71   32   33 ar
    72   32   34 1
    73   33   72 1
    74   34   35 1
    75   35   73 1
    76   35   74 1
    77   35   75 1
    78   36   37 1
    79   37   76 1
    80   37   77 1
    81   37   78 1
@<TRIPOS>MOLECULE
ZINC36313695
   75    77     0     0     0
SMALL
USER_CHARGES

@<TRIPOS>ATOM
      1 C1         -0.7196    1.6063   -4.6785 C.3       1 <0>        -0.1546
      2 C2         -0.6354    0.1715   -4.1540 C.3       1 <0>        -0.1225
      3 C3         -2.0053   -0.2598   -3.6264 C.3       1 <0>        -0.1197
      4 C4         -1.9212   -1.6946   -3.1019 C.3       1 <0>         0.0622
      5 O1         -3.2006   -2.0974   -2.6090 O.3       1 <0>        -0.3758
      6 C5         -3.2316   -3.4296   -2.0931 C.3       1 <0>         0.0357
      7 C6         -4.6425   -3.7514   -1.5963 C.3       1 <0>         0.0982
      8 H1         -5.3586   -3.5798   -2.3999 H         1 <0>         0.1224
      9 C7         -4.7076   -5.2162   -1.1594 C.3       1 <0>        -0.0621
     10 N1         -6.0972   -5.5710   -0.8413 N.4       1 <0>        -0.3722
     11 C8         -6.5338   -4.8241    0.3459 C.3       1 <0>        -0.0288
     12 C9         -5.6594   -5.2092    1.5408 C.3       1 <0>         0.0403
     13 O2         -4.3511   -4.6602    1.3703 O.3       1 <0>        -0.3976
     14 C10        -3.4501   -4.9627    2.4374 C.3       1 <0>         0.0226
     15 C11        -6.1853   -7.0126   -0.5726 C.3       1 <0>         0.0739
     16 C12        -7.6312   -7.4065   -0.4135 C.2       1 <0>        -0.2974
     17 C13        -8.5152   -7.7279   -1.4480 C.2       1 <0>         0.1127
     18 N2         -9.6789   -8.0167   -0.9238 N.2       1 <0>        -0.2330
     19 N3         -9.5803   -7.8900    0.4678 N.pl3     1 <0>        -0.2944
     20 C14        -8.3056   -7.5180    0.7619 C.2       1 <0>         0.2944
     21 O3         -7.8000   -7.2957    2.0018 O.3       1 <0>        -0.2316
     22 C15        -7.1751   -8.3258    2.6299 C.ar      1 <0>         0.1198
     23 C16        -6.9645   -9.5232    1.9602 C.ar      1 <0>        -0.2030
     24 C17        -6.3292  -10.5696    2.5998 C.ar      1 <0>        -0.0448
     25 C18        -5.9023  -10.4262    3.9070 C.ar      1 <0>        -0.1652
     26 C19        -6.1109   -9.2333    4.5786 C.ar      1 <0>         0.1473
     27 C20        -6.7416   -8.1803    3.9394 C.ar      1 <0>        -0.1714
     28 F1         -5.6938   -9.0955    5.8562 F         1 <0>        -0.1207
     29 C21       -10.6099   -8.1127    1.3924 C.ar      1 <0>         0.1137
     30 C22       -10.3428   -8.7696    2.5861 C.ar      1 <0>        -0.1151
     31 C23       -11.3594   -8.9872    3.4955 C.ar      1 <0>        -0.0976
     32 C24       -12.6421   -8.5516    3.2180 C.ar      1 <0>        -0.0970
     33 C25       -12.9114   -7.8975    2.0298 C.ar      1 <0>        -0.0994
     34 C26       -11.8978   -7.6719    1.1190 C.ar      1 <0>        -0.0923
     35 C27        -8.1841   -7.7390   -2.9182 C.3       1 <0>        -0.0523
     36 C28        -7.8027   -9.1581   -3.3444 C.3       1 <0>        -0.1521
     37 O4         -4.9605   -2.9088   -0.4868 O.3       1 <0>        -0.5397
     38 H2          0.2563    1.9136   -5.0544 H         1 <0>         0.0592
     39 H3         -1.4516    1.6562   -5.4846 H         1 <0>         0.0564
     40 H4         -1.0234    2.2714   -3.8702 H         1 <0>         0.0565
     41 H5         -0.3316   -0.4936   -4.9624 H         1 <0>         0.0639
     42 H6          0.0966    0.1216   -3.3479 H         1 <0>         0.0639
     43 H7         -2.3091    0.4054   -2.8180 H         1 <0>         0.0727
     44 H8         -2.7373   -0.2099   -4.4325 H         1 <0>         0.0720
     45 H9         -1.6173   -2.3597   -3.9102 H         1 <0>         0.0525
     46 H10        -1.1892   -1.7444   -2.2958 H         1 <0>         0.0525
     47 H11        -2.9550   -4.1307   -2.8805 H         1 <0>         0.0654
     48 H12        -2.5268   -3.5155   -1.2661 H         1 <0>         0.0636
     49 H13        -4.3459   -5.8527   -1.9670 H         1 <0>         0.1340
     50 H14        -4.0847   -5.3601   -0.2766 H         1 <0>         0.1648
     51 H15        -6.4404   -3.7547    0.1569 H         1 <0>         0.1778
     52 H16        -7.5742   -5.0649    0.5644 H         1 <0>         0.1303
     53 H17        -6.1017   -4.8164    2.4563 H         1 <0>         0.0975
     54 H18        -5.5920   -6.2951    1.6068 H         1 <0>         0.0711
     55 H19        -3.8466   -4.5648    3.3715 H         1 <0>         0.0579
     56 H20        -3.3369   -6.0435    2.5220 H         1 <0>         0.0507
     57 H21        -2.4797   -4.5106    2.2328 H         1 <0>         0.1003
     58 H22        -5.7477   -7.5646   -1.4044 H         1 <0>         0.1431
     59 H23        -5.6424   -7.2453    0.3435 H         1 <0>         0.1330
     60 H24        -7.2978   -9.6367    0.9392 H         1 <0>         0.1353
     61 H25        -6.1659  -11.5011    2.0783 H         1 <0>         0.1467
     62 H26        -5.4057  -11.2458    4.4051 H         1 <0>         0.1495
     63 H27        -6.9003   -7.2481    4.4611 H         1 <0>         0.1515
     64 H28        -9.3413   -9.1103    2.8032 H         1 <0>         0.1252
     65 H29       -11.1523   -9.4983    4.4240 H         1 <0>         0.1391
     66 H30       -13.4354   -8.7229    3.9306 H         1 <0>         0.1391
     67 H31       -13.9143   -7.5591    1.8155 H         1 <0>         0.1417
     68 H32       -12.1077   -7.1568    0.1933 H         1 <0>         0.1369
     69 H33        -9.0524   -7.4093   -3.4887 H         1 <0>         0.0983
     70 H34        -7.3480   -7.0657   -3.1074 H         1 <0>         0.0787
     71 H35        -8.6041   -9.8461   -3.0750 H         1 <0>         0.0661
     72 H36        -7.6485   -9.1844   -4.4231 H         1 <0>         0.0755
     73 H37        -6.8838   -9.4547   -2.8386 H         1 <0>         0.0584
     74 H38        -4.3006   -2.9232    0.2199 H         1 <0>         0.3945
     75 H39        -6.6912   -5.3377   -1.6228 H         1 <0>         0.4216
@<TRIPOS>BOND
     1    1    2 1
     2    1   38 1
     3    1   39 1
     4    1   40 1
     5    2    3 1
     6    2   41 1
     7    2   42 1
     8    3    4 1
     9    3   43 1
    10    3   44 1
    11    4    5 1
    12    4   45 1
    13    4   46 1
    14    5    6 1
    15    6    7 1
    16    6   47 1
    17    6   48 1
    18    7    8 1
    19    7    9 1
    20    7   37 1
    21    9   10 1
    22    9   49 1
    23    9   50 1
    24   10   11 1
    25   10   15 1
    26   10   75 1
    27   11   12 1
    28   11   51 1
    29   11   52 1
    30   12   13 1
    31   12   53 1
    32   12   54 1
    33   13   14 1
    34   14   55 1
    35   14   56 1
    36   14   57 1
    37   15   16 1
    38   15   58 1
    39   15   59 1
    40   16   20 2
    41   16   17 1
    42   17   18 2
    43   17   35 1
    44   18   19 1
    45   19   20 1
    46   19   29 1
    47   20   21 1
    48   21   22 1
    49   22   27 ar
    50   22   23 ar
    51   23   24 ar
    52   23   60 1
    53   24   25 ar
    54   24   61 1
    55   25   26 ar
    56   25   62 1
    57   26   27 ar
    58   26   28 1
    59   27   63 1
    60   29   34 ar
    61   29   30 ar
    62   30   31 ar
    63   30   64 1
    64   31   32 ar
    65   31   65 1
    66   32   33 ar
    67   32   66 1
    68   33   34 ar
    69   33   67 1
    70   34   68 1
    71   35   36 1
    72   35   69 1
    73   35   70 1
    74   36   71 1
    75   36   72 1
    76   36   73 1
    77   37   74 1
@<TRIPOS>MOLECULE
ZINC38636727
   76    77     0     0     0
SMALL
USER_CHARGES

@<TRIPOS>ATOM
      1 C1         -0.0530    1.1997   -0.2024 C.3       1 <0>        -0.1877
      2 C2          0.1453   -0.3121   -0.3290 C.3       1 <0>        -0.0195
      3 N1          1.0672   -0.7743    0.7172 N.4       1 <0>        -0.3859
      4 C3          0.4455   -0.5879    2.0350 C.3       1 <0>        -0.0133
      5 C4          1.4571   -0.9333    3.1296 C.3       1 <0>        -0.1905
      6 C5          1.3650   -2.1983    0.5132 C.3       1 <0>        -0.0032
      7 C6          2.1241   -2.3771   -0.8031 C.3       1 <0>        -0.1457
      8 C7          2.4296   -3.8379   -1.0123 C.2       1 <0>         0.4705
      9 O1          2.0764   -4.6524   -0.1927 O.2       1 <0>        -0.4966
     10 O2          3.0941   -4.2342   -2.1092 O.3       1 <0>        -0.3363
     11 C8          3.3494   -5.6339   -2.2428 C.3       1 <0>         0.0698
     12 C9          4.1106   -5.8915   -3.5447 C.3       1 <0>         0.0591
     13 O3          5.3989   -5.2774   -3.4728 O.3       1 <0>        -0.3139
     14 C10         6.2082   -5.4125   -4.5561 C.ar      1 <0>         0.1204
     15 C11         5.7691   -6.1167   -5.6679 C.ar      1 <0>        -0.2056
     16 C12         6.5934   -6.2522   -6.7681 C.ar      1 <0>        -0.0789
     17 C13         7.8553   -5.6871   -6.7617 C.ar      1 <0>        -0.0958
     18 C14         8.2955   -4.9852   -5.6547 C.ar      1 <0>        -0.0680
     19 C15         7.4726   -4.8416   -4.5544 C.ar      1 <0>        -0.1463
     20 C16         8.7527   -5.8369   -7.9631 C.3       1 <0>         0.0242
     21 C17         7.9919   -6.5511   -9.0821 C.3       1 <0>        -0.1443
     22 C18         9.1919   -4.4536   -8.4473 C.3       1 <0>        -0.1434
     23 C19         9.9669   -6.6458   -7.5855 C.ar      1 <0>        -0.1074
     24 C20         9.8254   -7.9694   -7.2116 C.ar      1 <0>        -0.0688
     25 C21        10.9367   -8.7129   -6.8645 C.ar      1 <0>        -0.1478
     26 C22        12.1956   -8.1305   -6.8918 C.ar      1 <0>         0.1299
     27 C23        12.3350   -6.8024   -7.2677 C.ar      1 <0>        -0.2073
     28 C24        11.2210   -6.0647   -7.6188 C.ar      1 <0>        -0.0786
     29 O4         13.2904   -8.8597   -6.5504 O.3       1 <0>        -0.3090
     30 C25        14.5544   -8.1950   -6.6013 C.3       1 <0>         0.0616
     31 C26        15.6596   -9.1684   -6.1866 C.3       1 <0>         0.0675
     32 O5         15.7488  -10.2243   -7.1453 O.3       1 <0>        -0.3420
     33 C27        16.6808  -11.1731   -6.9256 C.2       1 <0>         0.4943
     34 O6         17.3979  -11.1055   -5.9467 O.2       1 <0>        -0.5107
     35 C28        16.8297  -12.2893   -7.8698 C.2       1 <0>        -0.1958
     36 C29        17.7497  -13.2261   -7.6529 C.2       1 <0>        -0.0760
     37 H1          0.9181    1.6948   -0.2029 H         1 <0>         0.0808
     38 H2         -0.6450    1.5602   -1.0437 H         1 <0>         0.1074
     39 H3         -0.5733    1.4211    0.7294 H         1 <0>         0.0819
     40 H4         -0.8149   -0.8153   -0.2153 H         1 <0>         0.1323
     41 H5          0.5628   -0.5430   -1.3091 H         1 <0>         0.1311
     42 H6          0.1313    0.4500    2.1450 H         1 <0>         0.1352
     43 H7         -0.4224   -1.2415    2.1230 H         1 <0>         0.1313
     44 H8          1.6867   -1.9981    3.0894 H         1 <0>         0.0819
     45 H9          2.3703   -0.3586    2.9748 H         1 <0>         0.0804
     46 H10         1.0351   -0.6892    4.1045 H         1 <0>         0.1078
     47 H11         1.9770   -2.5633    1.3380 H         1 <0>         0.1440
     48 H12         0.4332   -2.7625    0.4748 H         1 <0>         0.1415
     49 H13         1.5121   -2.0121   -1.6279 H         1 <0>         0.1292
     50 H14         3.0559   -1.8129   -0.7647 H         1 <0>         0.1311
     51 H15         3.9475   -5.9763   -1.3983 H         1 <0>         0.0877
     52 H16         2.4036   -6.1755   -2.2616 H         1 <0>         0.0979
     53 H17         4.2276   -6.9653   -3.6908 H         1 <0>         0.0926
     54 H18         3.5532   -5.4696   -4.3811 H         1 <0>         0.0774
     55 H19         4.7837   -6.5588   -5.6731 H         1 <0>         0.1259
     56 H20         6.2521   -6.8002   -7.6339 H         1 <0>         0.1319
     57 H21         9.2817   -4.5451   -5.6520 H         1 <0>         0.1284
     58 H22         7.8151   -4.2896   -3.6917 H         1 <0>         0.1282
     59 H23         7.1138   -5.9660   -9.3552 H         1 <0>         0.0622
     60 H24         8.6410   -6.6594   -9.9510 H         1 <0>         0.0637
     61 H25         7.6791   -7.5366   -8.7371 H         1 <0>         0.0611
     62 H26         9.7339   -3.9448   -7.6501 H         1 <0>         0.0606
     63 H27         9.8410   -4.5619   -9.3162 H         1 <0>         0.0647
     64 H28         8.3137   -3.8685   -8.7204 H         1 <0>         0.0609
     65 H29         8.8452   -8.4223   -7.1906 H         1 <0>         0.1257
     66 H30        10.8256   -9.7466   -6.5719 H         1 <0>         0.1301
     67 H31        13.3139   -6.3468   -7.2896 H         1 <0>         0.1275
     68 H32        11.3294   -5.0320   -7.9158 H         1 <0>         0.1297
     69 H33        14.7404   -7.8454   -7.6169 H         1 <0>         0.0770
     70 H34        14.5451   -7.3441   -5.9202 H         1 <0>         0.0871
     71 H35        16.6112   -8.6389   -6.1396 H         1 <0>         0.0930
     72 H36        15.4273   -9.5858   -5.2069 H         1 <0>         0.0813
     73 H37        16.1924  -12.3494   -8.7397 H         1 <0>         0.1413
     74 H38        18.3870  -13.1660   -6.7830 H         1 <0>         0.1173
     75 H39        17.8591  -14.0464   -8.3468 H         1 <0>         0.1286
     76 H40         1.9230   -0.2417    0.6706 H         1 <0>         0.4234
@<TRIPOS>BOND
     1    1    2 1
     2    1   37 1
     3    1   38 1
     4    1   39 1
     5    2    3 1
     6    2   40 1
     7    2   41 1
     8    3    4 1
     9    3    6 1
    10    3   76 1
    11    4    5 1
    12    4   42 1
    13    4   43 1
    14    5   44 1
    15    5   45 1
    16    5   46 1
    17    6    7 1
    18    6   47 1
    19    6   48 1
    20    7    8 1
    21    7   49 1
    22    7   50 1
    23    8    9 2
    24    8   10 1
    25   10   11 1
    26   11   12 1
    27   11   51 1
    28   11   52 1
    29   12   13 1
    30   12   53 1
    31   12   54 1
    32   13   14 1
    33   14   19 ar
    34   14   15 ar
    35   15   16 ar
    36   15   55 1
    37   16   17 ar
    38   16   56 1
    39   17   18 ar
    40   17   20 1
    41   18   19 ar
    42   18   57 1
    43   19   58 1
    44   20   21 1
    45   20   22 1
    46   20   23 1
    47   21   59 1
    48   21   60 1
    49   21   61 1
    50   22   62 1
    51   22   63 1
    52   22   64 1
    53   23   28 ar
    54   23   24 ar
    55   24   25 ar
    56   24   65 1
    57   25   26 ar
    58   25   66 1
    59   26   27 ar
    60   26   29 1
    61   27   28 ar
    62   27   67 1
    63   28   68 1
    64   29   30 1
    65   30   31 1
    66   30   69 1
    67   30   70 1
    68   31   32 1
    69   31   71 1
    70   31   72 1
    71   32   33 1
    72   33   34 2
    73   33   35 1
    74   35   36 2
    75   35   73 1
    76   36   74 1
    77   36   75 1
@<TRIPOS>MOLECULE
ZINC40083431
   79    81     0     0     0
SMALL
USER_CHARGES

@<TRIPOS>ATOM
      1 C1          0.2845    0.3185   -1.2103 C.3       1 <0>        -0.1502
      2 C2          0.2474   -1.1171   -0.6825 C.3       1 <0>        -0.1205
      3 C3         -1.2027   -1.6015   -0.6240 C.3       1 <0>        -0.1371
      4 C4         -1.2399   -3.0371   -0.0962 C.3       1 <0>         0.1364
      5 N1         -2.6284   -3.5010   -0.0401 N.am      1 <0>        -0.6078
      6 C5         -3.5411   -3.3590    1.1004 C.3       1 <0>         0.2622
      7 H1         -3.6911   -2.3043    1.3313 H         1 <0>         0.0684
      8 C6         -4.8472   -3.9887    0.6757 C.2       1 <0>        -0.4802
      9 C7         -4.6709   -4.4388   -0.5883 C.2       1 <0>         0.2799
     10 C8         -3.2944   -4.1274   -1.0271 C.2       1 <0>         0.5045
     11 O1         -2.8317   -4.3996   -2.1171 O.2       1 <0>        -0.5352
     12 O2         -5.6076   -5.0696   -1.3336 O.3       1 <0>        -0.6120
     13 C9         -6.0700   -4.0922    1.4783 C.2       1 <0>         0.4806
     14 O3         -6.0723   -3.7142    2.6352 O.2       1 <0>        -0.5225
     15 C10        -7.2981   -4.6547    0.8832 C.ar      1 <0>        -0.1143
     16 C11        -7.7092   -5.9492    1.2162 C.ar      1 <0>        -0.0501
     17 C12        -8.8549   -6.4700    0.6590 C.ar      1 <0>        -0.2155
     18 C13        -9.6032   -5.7110   -0.2344 C.ar      1 <0>         0.1241
     19 C14        -9.1980   -4.4236   -0.5681 C.ar      1 <0>        -0.1520
     20 C15        -8.0566   -3.8928   -0.0105 C.ar      1 <0>         0.0002
     21 C16        -7.6217   -2.4949   -0.3682 C.3       1 <0>        -0.1100
     22 O4        -10.7316   -6.2285   -0.7822 O.3       1 <0>        -0.3149
     23 C17       -11.0377   -7.5897   -0.4728 C.3       1 <0>         0.0865
     24 C18       -12.2558   -8.0195   -1.2490 C.2       1 <0>        -0.1515
     25 C19       -12.2447   -9.1489   -1.9127 C.2       1 <0>        -0.1760
     26 C20        -2.9844   -4.0779    2.3022 C.ar      1 <0>        -0.0568
     27 C21        -2.5104   -5.3704    2.1744 C.ar      1 <0>        -0.0932
     28 C22        -1.9988   -6.0341    3.2738 C.ar      1 <0>        -0.1752
     29 C23        -1.9597   -5.4039    4.5072 C.ar      1 <0>         0.0899
     30 C24        -2.4363   -4.1029    4.6358 C.ar      1 <0>         0.0972
     31 C25        -2.9435   -3.4416    3.5287 C.ar      1 <0>        -0.1459
     32 O5         -2.4001   -3.4802    5.8442 O.3       1 <0>        -0.3094
     33 C26        -2.9990   -2.1852    5.9249 C.3       1 <0>         0.0526
     34 C27        -2.8350   -1.6350    7.3431 C.3       1 <0>        -0.1482
     35 O6         -1.4571   -6.0557    5.5898 O.3       1 <0>        -0.3082
     36 C28        -0.9863   -7.3890    5.3835 C.3       1 <0>         0.0579
     37 C29        -0.4621   -7.9549    6.7048 C.3       1 <0>        -0.1122
     38 C30         0.0419   -9.3826    6.4840 C.3       1 <0>        -0.0945
     39 C31         1.2508   -9.3573    5.5465 C.3       1 <0>        -0.1529
     40 C32         0.4502   -9.9927    7.8264 C.3       1 <0>        -0.1457
     41 H2          1.3176    0.6636   -1.2520 H         1 <0>         0.0511
     42 H3         -0.1495    0.3496   -2.2097 H         1 <0>         0.0534
     43 H4         -0.2880    0.9651   -0.5452 H         1 <0>         0.0529
     44 H5          0.8199   -1.7637   -1.3476 H         1 <0>         0.0617
     45 H6          0.6814   -1.1482    0.3168 H         1 <0>         0.0611
     46 H7         -1.7752   -0.9550    0.0411 H         1 <0>         0.0644
     47 H8         -1.6368   -1.5705   -1.6233 H         1 <0>         0.0661
     48 H9         -0.6674   -3.6837   -0.7613 H         1 <0>         0.0758
     49 H10        -0.8058   -3.0682    0.9032 H         1 <0>         0.0743
     50 H11        -7.1283   -6.5396    1.9093 H         1 <0>         0.1171
     51 H12        -9.1731   -7.4697    0.9156 H         1 <0>         0.1196
     52 H13        -9.7817   -3.8376   -1.2626 H         1 <0>         0.1240
     53 H14        -7.0146   -2.5237   -1.2731 H         1 <0>         0.0790
     54 H15        -8.5007   -1.8737   -0.5400 H         1 <0>         0.0595
     55 H16        -7.0352   -2.0764    0.4497 H         1 <0>         0.0655
     56 H17       -10.1925   -8.2226   -0.7432 H         1 <0>         0.0667
     57 H18       -11.2353   -7.6840    0.5950 H         1 <0>         0.0675
     58 H19       -13.1380   -7.3965   -1.2581 H         1 <0>         0.1174
     59 H20       -11.3951   -9.8113   -1.8371 H         1 <0>         0.0994
     60 H21       -13.0852   -9.4176   -2.5354 H         1 <0>         0.1055
     61 H22        -2.5403   -5.8627    1.2136 H         1 <0>         0.1188
     62 H23        -1.6298   -7.0440    3.1714 H         1 <0>         0.1268
     63 H24        -3.3105   -2.4304    3.6250 H         1 <0>         0.1309
     64 H25        -2.5122   -1.5150    5.2166 H         1 <0>         0.0577
     65 H26        -4.0596   -2.2598    5.6846 H         1 <0>         0.0645
     66 H27        -3.3661   -0.6870    7.4287 H         1 <0>         0.0745
     67 H28        -3.2453   -2.3472    8.0589 H         1 <0>         0.0648
     68 H29        -1.7767   -1.4787    7.5520 H         1 <0>         0.0615
     69 H30        -1.8046   -8.0112    5.0210 H         1 <0>         0.0577
     70 H31        -0.1825   -7.3807    4.6475 H         1 <0>         0.0600
     71 H32         0.3561   -7.3328    7.0674 H         1 <0>         0.0724
     72 H33        -1.2660   -7.9632    7.4409 H         1 <0>         0.0726
     73 H34        -0.7511   -9.9830    6.0382 H         1 <0>         0.0725
     74 H35         1.6099  -10.3743    5.3891 H         1 <0>         0.0551
     75 H36         0.9599   -8.9226    4.5902 H         1 <0>         0.0572
     76 H37         2.0438   -8.7569    5.9923 H         1 <0>         0.0561
     77 H38        -0.4110  -10.0107    8.4942 H         1 <0>         0.0555
     78 H39         0.8093  -11.0097    7.6690 H         1 <0>         0.0555
     79 H40         1.2432   -9.3923    8.2722 H         1 <0>         0.0553
@<TRIPOS>BOND
     1    1    2 1
     2    1   41 1
     3    1   42 1
     4    1   43 1
     5    2    3 1
     6    2   44 1
     7    2   45 1
     8    3    4 1
     9    3   46 1
    10    3   47 1
    11    4    5 1
    12    4   48 1
    13    4   49 1
    14    5   10 am
    15    5    6 1
    16    6    7 1
    17    6    8 1
    18    6   26 1
    19    8    9 2
    20    8   13 1
    21    9   10 1
    22    9   12 1
    23   10   11 2
    24   13   14 2
    25   13   15 1
    26   15   20 ar
    27   15   16 ar
    28   16   17 ar
    29   16   50 1
    30   17   18 ar
    31   17   51 1
    32   18   19 ar
    33   18   22 1
    34   19   20 ar
    35   19   52 1
    36   20   21 1
    37   21   53 1
    38   21   54 1
    39   21   55 1
    40   22   23 1
    41   23   24 1
    42   23   56 1
    43   23   57 1
    44   24   25 2
    45   24   58 1
    46   25   59 1
    47   25   60 1
    48   26   31 ar
    49   26   27 ar
    50   27   28 ar
    51   27   61 1
    52   28   29 ar
    53   28   62 1
    54   29   30 ar
    55   29   35 1
    56   30   31 ar
    57   30   32 1
    58   31   63 1
    59   32   33 1
    60   33   34 1
    61   33   64 1
    62   33   65 1
    63   34   66 1
    64   34   67 1
    65   34   68 1
    66   35   36 1
    67   36   37 1
    68   36   69 1
    69   36   70 1
    70   37   38 1
    71   37   71 1
    72   37   72 1
    73   38   39 1
    74   38   40 1
    75   38   73 1
    76   39   74 1
    77   39   75 1
    78   39   76 1
    79   40   77 1
    80   40   78 1
    81   40   79 1
@<TRIPOS>MOLECULE
ZINC06480741
   65    67     0     0     0
SMALL
USER_CHARGES
butyl 4-[2-[[4-(2-methoxyethyl)-5-(4-methoxyphenyl)-1,2,4-triazol-3-yl]sulfanyl]acetyl]aminobenzoate
@<TRIPOS>ATOM
      1 C1         -5.0389  -16.6034   -2.2445 C.3       1 <0>        -0.1524
      2 C2         -3.5489  -16.2896   -2.3941 C.3       1 <0>        -0.1225
      3 C3         -3.2950  -14.8288   -2.0169 C.3       1 <0>        -0.1208
      4 C4         -1.8050  -14.5151   -2.1664 C.3       1 <0>         0.0672
      5 O1         -1.5639  -13.1287   -1.8084 O.3       1 <0>        -0.3534
      6 C5         -0.2927  -12.6887   -1.8867 C.2       1 <0>         0.5114
      7 O2          0.5903  -13.4430   -2.2444 O.2       1 <0>        -0.5070
      8 C6          0.0269  -11.2920   -1.5384 C.ar      1 <0>        -0.1425
      9 C7          1.3453  -10.8338   -1.6190 C.ar      1 <0>        -0.0325
     10 C8          1.6400   -9.5292   -1.2935 C.ar      1 <0>        -0.1540
     11 C9          0.6275   -8.6668   -0.8846 C.ar      1 <0>         0.1802
     12 C10        -0.6850   -9.1208   -0.7980 C.ar      1 <0>        -0.1353
     13 C11        -0.9878  -10.4226   -1.1271 C.ar      1 <0>        -0.0395
     14 N1          0.9296   -7.3463   -0.5552 N.am      1 <0>        -0.6654
     15 C12         0.0515   -6.3635   -0.8373 C.2       1 <0>         0.5369
     16 O3         -1.0355   -6.6363   -1.3009 O.2       1 <0>        -0.4976
     17 C13         0.4203   -4.9258   -0.5768 C.3       1 <0>        -0.1510
     18 S1         -0.9570   -3.8533   -1.0553 S.3       1 <0>         0.0916
     19 C14        -0.2725   -2.2796   -0.6558 C.2       1 <0>         0.1410
     20 N2          0.9199   -2.0534   -0.1525 N.2       1 <0>        -0.2864
     21 N3          1.0957   -0.7916    0.0163 N.2       1 <0>        -0.2687
     22 C15         0.0265   -0.1345   -0.3689 C.2       1 <0>         0.2428
     23 N4         -0.8852   -1.0677   -0.8057 N.pl3     1 <0>        -0.4549
     24 C16        -2.2311   -0.8144   -1.3258 C.3       1 <0>         0.0956
     25 C17        -2.1743   -0.6919   -2.8498 C.3       1 <0>         0.0404
     26 O4         -3.4872   -0.4449   -3.3571 O.3       1 <0>        -0.3829
     27 C18        -3.5458   -0.3134   -4.7788 C.3       1 <0>         0.0311
     28 C19        -0.1642    1.3309   -0.3339 C.ar      1 <0>        -0.0638
     29 C20         0.6380    2.1216    0.4908 C.ar      1 <0>        -0.0282
     30 C21         0.4608    3.4884    0.5162 C.ar      1 <0>        -0.2059
     31 C22        -0.5218    4.0778   -0.2683 C.ar      1 <0>         0.1478
     32 C23        -1.3257    3.2941   -1.0856 C.ar      1 <0>        -0.1464
     33 C24        -1.1510    1.9272   -1.1211 C.ar      1 <0>        -0.0766
     34 O5         -0.6974    5.4247   -0.2358 O.3       1 <0>        -0.3128
     35 C25         0.1638    6.1706    0.6267 C.3       1 <0>         0.0235
     36 H1         -5.3434  -16.4367   -1.2113 H         1 <0>         0.0563
     37 H2         -5.6150  -15.9528   -2.9025 H         1 <0>         0.0563
     38 H3         -5.2199  -17.6441   -2.5133 H         1 <0>         0.0579
     39 H4         -3.2445  -16.4563   -3.4274 H         1 <0>         0.0659
     40 H5         -2.9728  -16.9402   -1.7361 H         1 <0>         0.0659
     41 H6         -3.5994  -14.6621   -0.9836 H         1 <0>         0.0753
     42 H7         -3.8711  -14.1782   -2.6748 H         1 <0>         0.0754
     43 H8         -1.5005  -14.6817   -3.1997 H         1 <0>         0.0718
     44 H9         -1.2288  -15.1656   -1.5084 H         1 <0>         0.0718
     45 H10         2.1316  -11.5026   -1.9367 H         1 <0>         0.1439
     46 H11         2.6581   -9.1745   -1.3559 H         1 <0>         0.1392
     47 H12        -1.4677   -8.4499   -0.4760 H         1 <0>         0.1494
     48 H13        -2.0073  -10.7732   -1.0636 H         1 <0>         0.1436
     49 H14         1.7719   -7.1347   -0.1231 H         1 <0>         0.4196
     50 H15         1.3032   -4.6656   -1.1607 H         1 <0>         0.1342
     51 H16         0.6337   -4.7918    0.4837 H         1 <0>         0.1344
     52 H17        -2.8878   -1.6401   -1.0519 H         1 <0>         0.1138
     53 H18        -2.6163    0.1126   -0.9009 H         1 <0>         0.1186
     54 H19        -1.5176    0.1338   -3.1238 H         1 <0>         0.0626
     55 H20        -1.7891   -1.6189   -3.2747 H         1 <0>         0.0667
     56 H21        -4.5754   -0.1276   -5.0845 H         1 <0>         0.0949
     57 H22        -2.9175    0.5202   -5.0928 H         1 <0>         0.0459
     58 H23        -3.1890   -1.2325   -5.2437 H         1 <0>         0.0472
     59 H24         1.3994    1.6635    1.1047 H         1 <0>         0.1409
     60 H25         1.0842    4.1014    1.1503 H         1 <0>         0.1387
     61 H26        -2.0886    3.7563   -1.6946 H         1 <0>         0.1401
     62 H27        -1.7769    1.3184   -1.7568 H         1 <0>         0.1379
     63 H28        -0.0819    7.2303    0.5575 H         1 <0>         0.1041
     64 H29         0.0298    5.8329    1.6544 H         1 <0>         0.0594
     65 H30         1.2003    6.0176    0.3261 H         1 <0>         0.0595
@<TRIPOS>BOND
     1    1    2 1
     2    1   36 1
     3    1   37 1
     4    1   38 1
     5    2    3 1
     6    2   39 1
     7    2   40 1
     8    3    4 1
     9    3   41 1
    10    3   42 1
    11    4    5 1
    12    4   43 1
    13    4   44 1
    14    5    6 1
    15    6    7 2
    16    6    8 1
    17    8   13 ar
    18    8    9 ar
    19    9   10 ar
    20    9   45 1
    21   10   11 ar
    22   10   46 1
    23   11   12 ar
    24   11   14 1
    25   12   13 ar
    26   12   47 1
    27   13   48 1
    28   14   15 am
    29   14   49 1
    30   15   16 2
    31   15   17 1
    32   17   18 1
    33   17   50 1
    34   17   51 1
    35   18   19 1
    36   19   23 1
    37   19   20 2
    38   20   21 1
    39   21   22 2
    40   22   23 1
    41   22   28 1
    42   23   24 1
    43   24   25 1
    44   24   52 1
    45   24   53 1
    46   25   26 1
    47   25   54 1
    48   25   55 1
    49   26   27 1
    50   27   56 1
    51   27   57 1
    52   27   58 1
    53   28   33 ar
    54   28   29 ar
    55   29   30 ar
    56   29   59 1
    57   30   31 ar
    58   30   60 1
    59   31   32 ar
    60   31   34 1
    61   32   33 ar
    62   32   61 1
    63   33   62 1
    64   34   35 1
    65   35   63 1
    66   35   64 1
    67   35   65 1
@<TRIPOS>MOLECULE
ZINC27641766
   68    69     0     0     0
SMALL
USER_CHARGES
isopropyl (Z)-7-[(1S,2R,3R,5R)-3,5-dihydroxy-2-[(E)-3-oxo-4-[3-(trifluoromethyl)phenoxy]but-1-enyl]cyclopentyl]hept-5-enoate
@<TRIPOS>ATOM
      1 C1          5.7844   11.1155   -6.6029 C.3       1 <0>        -0.1709
      2 C2          5.0957    9.8775   -6.0251 C.3       1 <0>         0.0787
      3 C3          6.1543    8.8781   -5.5543 C.3       1 <0>        -0.1520
      4 O1          4.2638   10.2669   -4.9006 O.3       1 <0>        -0.3584
      5 C4          2.9912   10.5980   -5.1699 C.2       1 <0>         0.4608
      6 O2          2.5858   10.5636   -6.3077 O.2       1 <0>        -0.5096
      7 C5          2.0680   11.0127   -4.0534 C.3       1 <0>        -0.1167
      8 C6          0.6865   11.3348   -4.6268 C.3       1 <0>        -0.1042
      9 C7         -0.2508   11.7558   -3.4932 C.3       1 <0>        -0.0941
     10 C8         -1.6114   12.0730   -4.0580 C.2       1 <0>        -0.1478
     11 C9         -2.6761   11.4860   -3.5703 C.2       1 <0>        -0.1626
     12 C10        -2.5659   10.6320   -2.3335 C.3       1 <0>        -0.0996
     13 C11        -3.5997   11.0907   -1.3032 C.3       1 <0>        -0.0624
     14 H1         -4.5671   11.0983   -1.8268 H         1 <0>         0.0957
     15 C12        -3.2123   12.4748   -0.7258 C.3       1 <0>         0.1185
     16 H2         -3.4133   13.3358   -1.3803 H         1 <0>         0.0672
     17 C13        -3.9431   12.4921    0.6398 C.3       1 <0>        -0.1440
     18 C14        -3.8111   11.0451    1.1579 C.3       1 <0>         0.1325
     19 H3         -3.0255   10.9263    1.9187 H         1 <0>         0.0605
     20 C15        -3.5928   10.1541   -0.0774 C.3       1 <0>        -0.0959
     21 H4         -4.3621    9.3717   -0.1550 H         1 <0>         0.0931
     22 C16        -2.2660    9.4468    0.0242 C.2       1 <0>        -0.0265
     23 C17        -2.2149    8.1140   -0.0235 C.2       1 <0>        -0.2608
     24 C18        -0.9272    7.4275    0.0751 C.2       1 <0>         0.3857
     25 O3          0.0946    8.0697    0.2004 O.2       1 <0>        -0.4324
     26 C19        -0.8695    5.9226    0.0212 C.3       1 <0>         0.0094
     27 O4          0.4887    5.4935    0.1370 O.3       1 <0>        -0.2909
     28 C20         0.7173    4.1542    0.1063 C.ar      1 <0>         0.1296
     29 C21        -0.3439    3.2711   -0.0319 C.ar      1 <0>        -0.1795
     30 C22        -0.1083    1.9105   -0.0680 C.ar      1 <0>        -0.0773
     31 C23         1.1827    1.4279    0.0448 C.ar      1 <0>        -0.1102
     32 C24         2.2417    2.3058    0.1826 C.ar      1 <0>        -0.1423
     33 C25         2.0119    3.6679    0.2136 C.ar      1 <0>        -0.1000
     34 C26         3.6479    1.7767    0.2996 C.3       1 <0>         0.5101
     35 F1          3.6264    0.3790    0.2431 F         1 <0>        -0.1743
     36 F2          4.4225    2.2741   -0.7539 F         1 <0>        -0.1736
     37 F3          4.2002    2.1857    1.5181 F         1 <0>        -0.1735
     38 O5         -5.0075   10.6570    1.8362 O.3       1 <0>        -0.6009
     39 O6         -1.7977   12.5717   -0.5486 O.3       1 <0>        -0.5953
     40 H5          5.0234   11.8340   -6.9414 H         1 <0>         0.0611
     41 H6          6.4147   10.8204   -7.4548 H         1 <0>         0.0766
     42 H7          6.4103   11.5821   -5.8280 H         1 <0>         0.0680
     43 H8          4.4270    9.4188   -6.7684 H         1 <0>         0.0850
     44 H9          5.6592    7.9880   -5.1389 H         1 <0>         0.0654
     45 H10         6.7802    9.3448   -4.7794 H         1 <0>         0.0697
     46 H11         6.7846    8.5831   -6.4062 H         1 <0>         0.0800
     47 H12         1.9808   10.1922   -3.3259 H         1 <0>         0.1069
     48 H13         2.4745   11.9043   -3.5536 H         1 <0>         0.1070
     49 H14         0.7737   12.1553   -5.3543 H         1 <0>         0.0715
     50 H15         0.2800   10.4432   -5.1267 H         1 <0>         0.0708
     51 H16        -0.3380   10.9353   -2.7657 H         1 <0>         0.0793
     52 H17         0.1557   12.6474   -2.9933 H         1 <0>         0.0736
     53 H18        -1.7105   12.7974   -4.8798 H         1 <0>         0.1081
     54 H19        -3.6506   11.6164   -4.0635 H         1 <0>         0.1068
     55 H20        -2.7520    9.5802   -2.5964 H         1 <0>         0.0646
     56 H21        -1.5561   10.7306   -1.9086 H         1 <0>         0.0977
     57 H22        -3.4541   13.2161    1.3082 H         1 <0>         0.0781
     58 H23        -4.9934   12.7827    0.4900 H         1 <0>         0.0877
     59 H24        -1.3396   10.0290    0.1377 H         1 <0>         0.1384
     60 H25        -3.1413    7.5318   -0.1370 H         1 <0>         0.1357
     61 H26        -1.4585    5.5032    0.8502 H         1 <0>         0.1007
     62 H27        -1.2839    5.5738   -0.9362 H         1 <0>         0.1006
     63 H28        -1.3528    3.6473   -0.1155 H         1 <0>         0.1385
     64 H29        -0.9335    1.2229   -0.1800 H         1 <0>         0.1405
     65 H30         1.3644    0.3636    0.0208 H         1 <0>         0.1422
     66 H31         2.8396    4.3533    0.3216 H         1 <0>         0.1442
     67 H32        -5.0904    9.6508    2.2730 H         1 <0>         0.4074
     68 H33        -1.3559   13.4949   -0.1454 H         1 <0>         0.4077
@<TRIPOS>BOND
     1    1    2 1
     2    1   40 1
     3    1   41 1
     4    1   42 1
     5    2    3 1
     6    2    4 1
     7    2   43 1
     8    3   44 1
     9    3   45 1
    10    3   46 1
    11    4    5 1
    12    5    6 2
    13    5    7 1
    14    7    8 1
    15    7   47 1
    16    7   48 1
    17    8    9 1
    18    8   49 1
    19    8   50 1
    20    9   10 1
    21    9   51 1
    22    9   52 1
    23   10   11 2
    24   10   53 1
    25   11   12 1
    26   11   54 1
    27   12   13 1
    28   12   55 1
    29   12   56 1
    30   13   14 1
    31   13   20 1
    32   13   15 1
    33   15   16 1
    34   15   17 1
    35   15   39 1
    36   17   18 1
    37   17   57 1
    38   17   58 1
    39   18   19 1
    40   18   20 1
    41   18   38 1
    42   20   21 1
    43   20   22 1
    44   22   23 2
    45   22   59 1
    46   23   24 1
    47   23   60 1
    48   24   25 2
    49   24   26 1
    50   26   27 1
    51   26   61 1
    52   26   62 1
    53   27   28 1
    54   28   33 ar
    55   28   29 ar
    56   29   30 ar
    57   29   63 1
    58   30   31 ar
    59   30   64 1
    60   31   32 ar
    61   31   65 1
    62   32   33 ar
    63   32   34 1
    64   33   66 1
    65   34   35 1
    66   34   36 1
    67   34   37 1
    68   38   67 1
    69   39   68 1
@<TRIPOS>MOLECULE
ZINC35795739
   73    75     0     0     0
SMALL
USER_CHARGES

@<TRIPOS>ATOM
      1 C1          0.9995   -1.1563   -0.0313 C.3       1 <0>        -0.1600
      2 C2          0.0223    0.0197    0.0236 C.3       1 <0>         0.1286
      3 C3          0.3415    1.0013   -1.1058 C.3       1 <0>        -0.1687
      4 N1         -1.3474   -0.4758   -0.1326 N.am      1 <0>        -0.5915
      5 C4         -1.7021   -1.2947   -1.2944 C.3       1 <0>         0.0949
      6 C5         -1.4814   -2.7497   -0.9697 C.2       1 <0>         0.5037
      7 O1         -1.0685   -3.0709    0.1245 O.2       1 <0>        -0.5147
      8 N2         -1.7428   -3.6939   -1.8952 N.am      1 <0>        -0.6081
      9 C6         -1.5283   -5.1083   -1.5795 C.3       1 <0>         0.1237
     10 C7         -2.8093   -5.6986   -0.9867 C.3       1 <0>        -0.0911
     11 C8         -2.5886   -7.1535   -0.6620 C.ar      1 <0>        -0.0780
     12 C9         -2.8519   -8.1205   -1.6144 C.ar      1 <0>        -0.1123
     13 C10        -2.6510   -9.4564   -1.3214 C.ar      1 <0>        -0.1707
     14 C11        -2.1845   -9.8289   -0.0710 C.ar      1 <0>         0.0968
     15 C12        -1.9191   -8.8557    0.8875 C.ar      1 <0>         0.1023
     16 C13        -2.1180   -7.5180    0.5857 C.ar      1 <0>        -0.1642
     17 O2         -1.4610   -9.2163    2.1162 O.3       1 <0>        -0.3066
     18 C14        -1.2102   -8.1638    3.0497 C.3       1 <0>         0.0259
     19 O3         -1.9868  -11.1428    0.2190 O.3       1 <0>        -0.3071
     20 C15        -2.2807  -12.0864   -0.8131 C.3       1 <0>         0.0262
     21 C16        -2.2415   -3.3059   -3.2169 C.3       1 <0>         0.1892
     22 C17        -1.0771   -3.0764   -4.1457 C.2       1 <0>        -0.1746
     23 C18        -0.4500   -3.9580   -4.9623 C.2       1 <0>        -0.1326
     24 C19         0.6086   -3.5194   -5.7354 C.2       1 <0>        -0.1593
     25 C20         0.9883   -2.2208   -5.6540 C.2       1 <0>        -0.1614
     26 S1         -0.1708   -1.5711   -4.4617 S.3       1 <0>         0.0313
     27 C21        -2.2813   -0.1783    0.7925 C.2       1 <0>         0.5252
     28 O4         -3.4351   -0.5084    0.6173 O.2       1 <0>        -0.5116
     29 C22        -1.8919    0.5645    2.0445 C.3       1 <0>         0.0460
     30 O5         -3.0220    0.6577    2.9141 O.3       1 <0>        -0.3557
     31 C23        -2.7588    1.3480    4.1373 C.3       1 <0>         0.1022
     32 C24        -4.0128    1.3865    4.9722 C.ar      1 <0>        -0.0930
     33 C25        -4.9028    2.4352    4.8347 C.ar      1 <0>        -0.0963
     34 C26        -6.0531    2.4706    5.6006 C.ar      1 <0>        -0.1237
     35 C27        -6.3135    1.4569    6.5036 C.ar      1 <0>        -0.1119
     36 C28        -5.4240    0.4077    6.6405 C.ar      1 <0>        -0.1236
     37 C29        -4.2759    0.3702    5.8716 C.ar      1 <0>        -0.0963
     38 H1          2.0223   -0.7805   -0.0027 H         1 <0>         0.0666
     39 H2          0.8288   -1.8107    0.8235 H         1 <0>         0.0722
     40 H3          0.8436   -1.7154   -0.9539 H         1 <0>         0.0547
     41 H4          0.1179    0.5270    0.9837 H         1 <0>         0.0942
     42 H5          0.1617    0.5200   -2.0671 H         1 <0>         0.0623
     43 H6         -0.2966    1.8802   -1.0145 H         1 <0>         0.0624
     44 H7          1.3869    1.3029   -1.0404 H         1 <0>         0.0740
     45 H8         -2.7503   -1.1336   -1.5462 H         1 <0>         0.1151
     46 H9         -1.0773   -1.0128   -2.1420 H         1 <0>         0.1070
     47 H10        -1.2667   -5.6481   -2.4896 H         1 <0>         0.0799
     48 H11        -0.7175   -5.2003   -0.8567 H         1 <0>         0.0866
     49 H12        -3.0709   -5.1588   -0.0766 H         1 <0>         0.0778
     50 H13        -3.6201   -5.6066   -1.7095 H         1 <0>         0.0761
     51 H14        -3.2156   -7.8314   -2.5894 H         1 <0>         0.1265
     52 H15        -2.8581  -10.2099   -2.0670 H         1 <0>         0.1354
     53 H16        -1.9092   -6.7604    1.3266 H         1 <0>         0.1360
     54 H17        -0.4571   -7.4890    2.6427 H         1 <0>         0.0554
     55 H18        -2.1324   -7.6118    3.2313 H         1 <0>         0.0553
     56 H19        -0.8499   -8.5876    3.9870 H         1 <0>         0.1013
     57 H20        -1.6555  -11.8809   -1.6820 H         1 <0>         0.0546
     58 H21        -2.0801  -13.0948   -0.4514 H         1 <0>         0.1008
     59 H22        -3.3308  -12.0030   -1.0933 H         1 <0>         0.0548
     60 H23        -2.8726   -4.1006   -3.6148 H         1 <0>         0.1098
     61 H24        -2.8237   -2.3884   -3.1306 H         1 <0>         0.0966
     62 H25        -0.7725   -4.9877   -5.0080 H         1 <0>         0.1339
     63 H26         1.1257   -4.2014   -6.3941 H         1 <0>         0.1358
     64 H27         1.7832   -1.7105   -6.1776 H         1 <0>         0.1868
     65 H28        -1.0880    0.0289    2.5496 H         1 <0>         0.0826
     66 H29        -1.5520    1.5663    1.7818 H         1 <0>         0.0817
     67 H30        -1.9730    0.8287    4.6858 H         1 <0>         0.0613
     68 H31        -2.4370    2.3660    3.9180 H         1 <0>         0.0615
     69 H32        -4.6993    3.2272    4.1292 H         1 <0>         0.1229
     70 H33        -6.7480    3.2903    5.4937 H         1 <0>         0.1244
     71 H34        -7.2119    1.4848    7.1025 H         1 <0>         0.1234
     72 H35        -5.6273   -0.3841    7.3463 H         1 <0>         0.1243
     73 H36        -3.5827   -0.4515    5.9758 H         1 <0>         0.1227
@<TRIPOS>BOND
     1    1    2 1
     2    1   38 1
     3    1   39 1
     4    1   40 1
     5    2    3 1
     6    2    4 1
     7    2   41 1
     8    3   42 1
     9    3   43 1
    10    3   44 1
    11    4    5 1
    12    4   27 am
    13    5    6 1
    14    5   45 1
    15    5   46 1
    16    6    7 2
    17    6    8 am
    18    8    9 1
    19    8   21 1
    20    9   10 1
    21    9   47 1
    22    9   48 1
    23   10   11 1
    24   10   49 1
    25   10   50 1
    26   11   16 ar
    27   11   12 ar
    28   12   13 ar
    29   12   51 1
    30   13   14 ar
    31   13   52 1
    32   14   15 ar
    33   14   19 1
    34   15   16 ar
    35   15   17 1
    36   16   53 1
    37   17   18 1
    38   18   54 1
    39   18   55 1
    40   18   56 1
    41   19   20 1
    42   20   57 1
    43   20   58 1
    44   20   59 1
    45   21   22 1
    46   21   60 1
    47   21   61 1
    48   22   26 1
    49   22   23 2
    50   23   24 1
    51   23   62 1
    52   24   25 2
    53   24   63 1
    54   25   26 1
    55   25   64 1
    56   27   28 2
    57   27   29 1
    58   29   30 1
    59   29   65 1
    60   29   66 1
    61   30   31 1
    62   31   32 1
    63   31   67 1
    64   31   68 1
    65   32   37 ar
    66   32   33 ar
    67   33   34 ar
    68   33   69 1
    69   34   35 ar
    70   34   70 1
    71   35   36 ar
    72   35   71 1
    73   36   37 ar
    74   36   72 1
    75   37   73 1
@<TRIPOS>MOLECULE
ZINC36519881
   83    84     0     0     0
SMALL
USER_CHARGES

@<TRIPOS>ATOM
      1 C1         -1.7307    2.7255   -1.5362 C.3       1 <0>        -0.1543
      2 C2         -1.6612    1.4105   -0.7571 C.3       1 <0>        -0.1251
      3 C3         -3.0407    0.7489   -0.7492 C.3       1 <0>        -0.1189
      4 C4         -2.9712   -0.5661    0.0299 C.3       1 <0>        -0.1168
      5 C5         -4.3508   -1.2277    0.0379 C.3       1 <0>        -0.1336
      6 C6         -4.2813   -2.5426    0.8169 C.3       1 <0>         0.1171
      7 N1         -5.6022   -3.1761    0.8246 N.am      1 <0>        -0.5823
      8 C7         -6.0140   -4.0250   -0.2962 C.3       1 <0>         0.1059
      9 H1         -5.2233   -4.0453   -1.0462 H         1 <0>         0.1281
     10 C8         -6.2745   -5.4455    0.2088 C.3       1 <0>        -0.1029
     11 H2         -6.8821   -5.4040    1.1128 H         1 <0>         0.1291
     12 C9         -7.0153   -6.2415   -0.8676 C.3       1 <0>        -0.2031
     13 C10        -4.9615   -6.1180    0.5165 C.ar      1 <0>        -0.0798
     14 C11        -3.9777   -6.1893   -0.4521 C.ar      1 <0>        -0.1184
     15 C12        -2.7733   -6.8062   -0.1699 C.ar      1 <0>        -0.1123
     16 C13        -2.5524   -7.3513    1.0811 C.ar      1 <0>        -0.1151
     17 C14        -3.5358   -7.2792    2.0500 C.ar      1 <0>        -0.1110
     18 C15        -4.7386   -6.6586    1.7691 C.ar      1 <0>        -0.1072
     19 C16        -7.2740   -3.4708   -0.9096 C.2       1 <0>         0.4944
     20 O1         -7.8154   -2.5049   -0.4147 O.2       1 <0>        -0.5026
     21 N2         -7.7994   -4.0486   -2.0080 N.am      1 <0>        -0.7377
     22 C17        -8.9946   -3.4787   -2.6349 C.3       1 <0>         0.1781
     23 C18       -10.1840   -3.6139   -1.6821 C.3       1 <0>        -0.1663
     24 C19        -8.7530   -1.9996   -2.9426 C.3       1 <0>        -0.2376
     25 C20        -9.2949   -4.2276   -3.9349 C.3       1 <0>        -0.1169
     26 C21        -8.0172   -4.3321   -4.7701 C.3       1 <0>        -0.0679
     27 C22        -7.1360   -5.4533   -4.2160 C.3       1 <0>        -0.1664
     28 C23        -8.3819   -4.6410   -6.2236 C.3       1 <0>        -0.1438
     29 C24        -7.2562   -3.0063   -4.7060 C.3       1 <0>        -0.1649
     30 C25        -6.4386   -2.9780    1.8627 C.2       1 <0>         0.5826
     31 O2         -6.1397   -2.1951    2.7431 O.2       1 <0>        -0.5137
     32 C26        -7.7197   -3.7129    1.9305 C.ar      1 <0>        -0.1357
     33 C27        -8.0971   -4.5614    0.8882 C.ar      1 <0>        -0.0881
     34 C28        -9.2934   -5.2445    0.9579 C.ar      1 <0>        -0.1504
     35 C29       -10.1189   -5.0898    2.0578 C.ar      1 <0>        -0.0198
     36 C30        -9.7510   -4.2503    3.0938 C.ar      1 <0>        -0.0695
     37 C31        -8.5541   -3.5659    3.0394 C.ar      1 <0>         0.0092
     38 N3        -10.6403   -4.0905    4.2662 N.pl3     1 <0>         0.0361
     39 O3        -11.6870   -4.6934    4.3175 O.2       1 <0>        -0.1574
     40 O4        -10.3201   -3.3571    5.1724 O.3       1 <0>        -0.1542
     41 H3         -0.7479    3.1968   -1.5419 H         1 <0>         0.0538
     42 H4         -2.0432    2.5246   -2.5610 H         1 <0>         0.0527
     43 H5         -2.4505    3.3918   -1.0609 H         1 <0>         0.0538
     44 H6         -0.9414    0.7441   -1.2325 H         1 <0>         0.0602
     45 H7         -1.3487    1.6114    0.2676 H         1 <0>         0.0614
     46 H8         -3.7605    1.4152   -0.2738 H         1 <0>         0.0621
     47 H9         -3.3533    0.5480   -1.7739 H         1 <0>         0.0599
     48 H10        -2.2514   -1.2324   -0.4455 H         1 <0>         0.0624
     49 H11        -2.6587   -0.3652    1.0546 H         1 <0>         0.0657
     50 H12        -5.0706   -0.5613    0.5132 H         1 <0>         0.0720
     51 H13        -4.6633   -1.4286   -0.9869 H         1 <0>         0.0601
     52 H14        -3.5615   -3.2090    0.3416 H         1 <0>         0.0801
     53 H15        -3.9687   -2.3417    1.8417 H         1 <0>         0.0946
     54 H16        -7.2155   -7.2485   -0.5015 H         1 <0>         0.0904
     55 H17        -7.9575   -5.7461   -1.1020 H         1 <0>         0.0926
     56 H18        -6.4007   -6.2971   -1.7660 H         1 <0>         0.0783
     57 H19        -4.1503   -5.7634   -1.4294 H         1 <0>         0.1194
     58 H20        -2.0050   -6.8625   -0.9268 H         1 <0>         0.1253
     59 H21        -1.6116   -7.8339    1.3014 H         1 <0>         0.1246
     60 H22        -3.3633   -7.7054    3.0272 H         1 <0>         0.1250
     61 H23        -5.5055   -6.5989    2.5272 H         1 <0>         0.1182
     62 H24        -7.3862   -4.8419   -2.3835 H         1 <0>         0.4111
     63 H25       -10.0080   -3.0082   -0.7931 H         1 <0>         0.0737
     64 H26       -11.0903   -3.2714   -2.1814 H         1 <0>         0.0658
     65 H27       -10.3010   -4.6582   -1.3929 H         1 <0>         0.0547
     66 H28        -8.0699   -1.9110   -3.7873 H         1 <0>         0.1167
     67 H29        -9.7004   -1.5204   -3.1896 H         1 <0>         0.0578
     68 H30        -8.3167   -1.5135   -2.0699 H         1 <0>         0.0817
     69 H31        -9.6595   -5.2280   -3.7020 H         1 <0>         0.0717
     70 H32       -10.0544   -3.6862   -4.4989 H         1 <0>         0.0849
     71 H33        -7.7606   -6.3015   -3.9357 H         1 <0>         0.0652
     72 H34        -6.4217   -5.7645   -4.9784 H         1 <0>         0.0698
     73 H35        -6.5978   -5.0929   -3.3394 H         1 <0>         0.0602
     74 H36        -9.0097   -3.8422   -6.6183 H         1 <0>         0.0581
     75 H37        -7.4717   -4.7154   -6.8186 H         1 <0>         0.0578
     76 H38        -8.9241   -5.5855   -6.2692 H         1 <0>         0.0573
     77 H39        -6.9975   -2.7856   -3.6704 H         1 <0>         0.0809
     78 H40        -6.3453   -3.0812   -5.3000 H         1 <0>         0.0520
     79 H41        -7.8835   -2.2077   -5.1019 H         1 <0>         0.0723
     80 H42        -7.4541   -4.6824    0.0290 H         1 <0>         0.2168
     81 H43        -9.5867   -5.9012    0.1522 H         1 <0>         0.1507
     82 H44       -11.0547   -5.6267    2.1073 H         1 <0>         0.1572
     83 H45        -8.2659   -2.9142    3.8510 H         1 <0>         0.1642
@<TRIPOS>BOND
     1    1    2 1
     2    1   41 1
     3    1   42 1
     4    1   43 1
     5    2    3 1
     6    2   44 1
     7    2   45 1
     8    3    4 1
     9    3   46 1
    10    3   47 1
    11    4    5 1
    12    4   48 1
    13    4   49 1
    14    5    6 1
    15    5   50 1
    16    5   51 1
    17    6    7 1
    18    6   52 1
    19    6   53 1
    20    7    8 1
    21    7   30 am
    22    8    9 1
    23    8   10 1
    24    8   19 1
    25   10   11 1
    26   10   12 1
    27   10   13 1
    28   12   54 1
    29   12   55 1
    30   12   56 1
    31   13   18 ar
    32   13   14 ar
    33   14   15 ar
    34   14   57 1
    35   15   16 ar
    36   15   58 1
    37   16   17 ar
    38   16   59 1
    39   17   18 ar
    40   17   60 1
    41   18   61 1
    42   19   20 2
    43   19   21 am
    44   21   22 1
    45   21   62 1
    46   22   23 1
    47   22   24 1
    48   22   25 1
    49   23   63 1
    50   23   64 1
    51   23   65 1
    52   24   66 1
    53   24   67 1
    54   24   68 1
    55   25   26 1
    56   25   69 1
    57   25   70 1
    58   26   27 1
    59   26   28 1
    60   26   29 1
    61   27   71 1
    62   27   72 1
    63   27   73 1
    64   28   74 1
    65   28   75 1
    66   28   76 1
    67   29   77 1
    68   29   78 1
    69   29   79 1
    70   30   31 2
    71   30   32 1
    72   32   37 ar
    73   32   33 ar
    74   33   34 ar
    75   33   80 1
    76   34   35 ar
    77   34   81 1
    78   35   36 ar
    79   35   82 1
    80   36   37 ar
    81   36   38 1
    82   37   83 1
    83   38   39 2
    84   38   40 1
@<TRIPOS>MOLECULE
ZINC40020172
   73    75     0     0     0
SMALL
USER_CHARGES

@<TRIPOS>ATOM
      1 C1          3.0089    3.0999   -4.0576 C.3       1 <0>        -0.1567
      2 C2          2.1849    1.8370   -4.3164 C.3       1 <0>        -0.1209
      3 C3          2.4360    0.8257   -3.1960 C.3       1 <0>        -0.1467
      4 C4          1.6120   -0.4372   -3.4548 C.3       1 <0>        -0.0175
      5 N1          1.8531   -1.4082   -2.3791 N.4       1 <0>        -0.3843
      6 C5          1.3483   -0.8680   -1.1097 C.3       1 <0>        -0.0134
      7 C6          1.7317   -1.8097    0.0336 C.3       1 <0>        -0.1518
      8 C7          1.1467   -1.2834    1.3458 C.3       1 <0>        -0.1187
      9 C8          1.5301   -2.2250    2.4891 C.3       1 <0>        -0.1586
     10 C9          1.1569   -2.6643   -2.6881 C.3       1 <0>        -0.0089
     11 C10         1.7890   -3.3069   -3.9244 C.3       1 <0>        -0.1831
     12 C11         1.1513   -4.6757   -4.1701 C.3       1 <0>         0.1456
     13 N2          1.7566   -5.2910   -5.3539 N.am      1 <0>        -0.6162
     14 C12         1.2918   -5.1416   -6.7379 C.3       1 <0>         0.3040
     15 H1          0.2747   -5.5212   -6.8347 H         1 <0>         0.0910
     16 C13         2.2347   -5.9591   -7.5896 C.2       1 <0>        -0.5040
     17 C14         3.1407   -6.5116   -6.7493 C.2       1 <0>         0.2656
     18 C15         2.8402   -6.0883   -5.3651 C.2       1 <0>         0.5165
     19 O1          3.4763   -6.4143   -4.3826 O.2       1 <0>        -0.5247
     20 O2          4.1616   -7.3190   -7.1180 O.3       1 <0>        -0.6364
     21 C16         2.1787   -6.1228   -9.0452 C.2       1 <0>         0.5034
     22 O3          3.0675   -5.6714   -9.7427 O.2       1 <0>        -0.4621
     23 C17         1.0421   -6.8367   -9.6658 C.ar      1 <0>        -0.1014
     24 C18         0.0355   -7.3819   -8.8654 C.ar      1 <0>        -0.1046
     25 C19        -1.0232   -8.0471   -9.4478 C.ar      1 <0>        -0.0976
     26 C20        -1.0917   -8.1770  -10.8232 C.ar      1 <0>        -0.1919
     27 C21        -0.0959   -7.6384  -11.6271 C.ar      1 <0>         0.1121
     28 C22         0.9682   -6.9632  -11.0537 C.ar      1 <0>        -0.1046
     29 O4         -0.1687   -7.7692  -12.9779 O.3       1 <0>        -0.3177
     30 C23        -1.2970   -8.4724  -13.5018 C.3       1 <0>         0.0280
     31 C24         1.3449   -3.6926   -7.1486 C.2       1 <0>        -0.1151
     32 C25         0.3708   -2.9238   -7.6941 C.2       1 <0>        -0.1378
     33 C26         0.6479   -1.6030   -7.9929 C.2       1 <0>        -0.1413
     34 C27         1.8854   -1.1156   -7.7317 C.2       1 <0>        -0.2033
     35 S1          2.7045   -2.5411   -7.0359 S.3       1 <0>         0.0452
     36 C28        -0.9936   -3.5006   -7.9710 C.3       1 <0>        -0.0988
     37 H2          2.7158    3.5356   -3.1024 H         1 <0>         0.0567
     38 H3          4.0680    2.8434   -4.0303 H         1 <0>         0.0590
     39 H4          2.8300    3.8203   -4.8558 H         1 <0>         0.0649
     40 H5          1.1258    2.0934   -4.3437 H         1 <0>         0.0717
     41 H6          2.4779    1.4012   -5.2715 H         1 <0>         0.0754
     42 H7          3.4951    0.5692   -3.1687 H         1 <0>         0.0863
     43 H8          2.1429    1.2614   -2.2408 H         1 <0>         0.0840
     44 H9          0.5529   -0.1808   -3.4821 H         1 <0>         0.1287
     45 H10         1.9050   -0.8729   -4.4099 H         1 <0>         0.1347
     46 H11         1.7858    0.1146   -0.9333 H         1 <0>         0.1303
     47 H12         0.2630   -0.7790   -1.1587 H         1 <0>         0.1282
     48 H13         1.3357   -2.8052   -0.1672 H         1 <0>         0.0884
     49 H14         2.8175   -1.8600    0.1143 H         1 <0>         0.0872
     50 H15         1.5426   -0.2879    1.5467 H         1 <0>         0.0711
     51 H16         0.0608   -1.2330    1.2651 H         1 <0>         0.0716
     52 H17         1.1133   -1.8501    3.4239 H         1 <0>         0.0643
     53 H18         1.1341   -3.2205    2.2882 H         1 <0>         0.0597
     54 H19         2.6159   -2.2754    2.5697 H         1 <0>         0.0593
     55 H20         1.2423   -3.3449   -1.8410 H         1 <0>         0.1334
     56 H21         0.1047   -2.4579   -2.8838 H         1 <0>         0.1301
     57 H22         1.6226   -2.6676   -4.7914 H         1 <0>         0.0983
     58 H23         2.8601   -3.4287   -3.7631 H         1 <0>         0.0918
     59 H24         1.3177   -5.3150   -3.3031 H         1 <0>         0.0887
     60 H25         0.0802   -4.5539   -4.3315 H         1 <0>         0.0849
     61 H26         0.0863   -7.2829   -7.7911 H         1 <0>         0.1324
     62 H27        -1.8009   -8.4682   -8.8280 H         1 <0>         0.1260
     63 H28        -1.9227   -8.6995  -11.2735 H         1 <0>         0.1267
     64 H29         1.7411   -6.5400  -11.6782 H         1 <0>         0.1373
     65 H30        -1.3064   -9.4889  -13.1082 H         1 <0>         0.0547
     66 H31        -2.2131   -7.9603  -13.2073 H         1 <0>         0.0536
     67 H32        -1.2322   -8.5045  -14.5894 H         1 <0>         0.0988
     68 H33        -0.1102   -0.9689   -8.4283 H         1 <0>         0.1284
     69 H34         2.2739   -0.1216   -7.8977 H         1 <0>         0.1792
     70 H35        -1.6545   -3.2903   -7.1301 H         1 <0>         0.0627
     71 H36        -1.4019   -3.0498   -8.8755 H         1 <0>         0.0646
     72 H37        -0.9114   -4.5788   -8.1077 H         1 <0>         0.0700
     73 H38         2.8436   -1.5833   -2.2999 H         1 <0>         0.4234
@<TRIPOS>BOND
     1    1    2 1
     2    1   37 1
     3    1   38 1
     4    1   39 1
     5    2    3 1
     6    2   40 1
     7    2   41 1
     8    3    4 1
     9    3   42 1
    10    3   43 1
    11    4    5 1
    12    4   44 1
    13    4   45 1
    14    5    6 1
    15    5   10 1
    16    5   73 1
    17    6    7 1
    18    6   46 1
    19    6   47 1
    20    7    8 1
    21    7   48 1
    22    7   49 1
    23    8    9 1
    24    8   50 1
    25    8   51 1
    26    9   52 1
    27    9   53 1
    28    9   54 1
    29   10   11 1
    30   10   55 1
    31   10   56 1
    32   11   12 1
    33   11   57 1
    34   11   58 1
    35   12   13 1
    36   12   59 1
    37   12   60 1
    38   13   18 am
    39   13   14 1
    40   14   15 1
    41   14   16 1
    42   14   31 1
    43   16   17 2
    44   16   21 1
    45   17   18 1
    46   17   20 1
    47   18   19 2
    48   21   22 2
    49   21   23 1
    50   23   28 ar
    51   23   24 ar
    52   24   25 ar
    53   24   61 1
    54   25   26 ar
    55   25   62 1
    56   26   27 ar
    57   26   63 1
    58   27   28 ar
    59   27   29 1
    60   28   64 1
    61   29   30 1
    62   30   65 1
    63   30   66 1
    64   30   67 1
    65   31   35 1
    66   31   32 2
    67   32   33 1
    68   32   36 1
    69   33   34 2
    70   33   68 1
    71   34   35 1
    72   34   69 1
    73   36   70 1
    74   36   71 1
    75   36   72 1
@<TRIPOS>MOLECULE
ZINC06005358
   73    74     0     0     0
SMALL
USER_CHARGES
neopentyl 2-(3-benzyloxycarbonyl-2-benzyloxycarbonylamino-propanoyl)amino-2-methyl-propanoate
@<TRIPOS>ATOM
      1 C1          2.3120   -2.7805    0.8915 C.3       1 <0>        -0.1423
      2 C2          3.3813   -1.9583    1.6138 C.3       1 <0>        -0.0674
      3 C3          4.7099   -2.7167    1.5905 C.3       1 <0>        -0.1439
      4 C4          2.9524   -1.7252    3.0638 C.3       1 <0>        -0.1422
      5 C5          3.5508   -0.6108    0.9092 C.3       1 <0>         0.0755
      6 O1          2.2899    0.1089    0.9312 O.3       1 <0>        -0.3508
      7 C6          2.2685    1.3186    0.3499 C.2       1 <0>         0.4631
      8 O2          3.2701    1.7614   -0.1605 O.2       1 <0>        -0.4873
      9 C7          0.9951    2.1244    0.3338 C.3       1 <0>         0.1959
     10 C8          1.0216    3.0964   -0.8474 C.3       1 <0>        -0.1584
     11 C9          0.8735    2.9120    1.6398 C.3       1 <0>        -0.1647
     12 N1         -0.1517    1.2228    0.1986 N.am      1 <0>        -0.7192
     13 C10        -1.4019    1.7244    0.1557 C.2       1 <0>         0.5112
     14 O3         -1.5778    2.9218    0.2340 O.2       1 <0>        -0.5063
     15 C11        -2.5811    0.7974    0.0104 C.3       1 <0>         0.1620
     16 H1         -2.4902    0.2369   -0.9200 H         1 <0>         0.1336
     17 C12        -2.6135   -0.1755    1.1908 C.3       1 <0>        -0.1228
     18 C13        -3.7084   -1.1886    0.9769 C.2       1 <0>         0.4598
     19 O4         -4.4415   -1.0932    0.0211 O.2       1 <0>        -0.4875
     20 O5         -3.8693   -2.1970    1.8481 O.3       1 <0>        -0.3485
     21 C14        -4.9442   -3.1354    1.5790 C.3       1 <0>         0.1112
     22 C15        -4.9713   -4.1901    2.6551 C.ar      1 <0>        -0.1020
     23 C16        -4.2376   -5.3517    2.5029 C.ar      1 <0>        -0.0941
     24 C17        -4.2587   -6.3171    3.4921 C.ar      1 <0>        -0.1225
     25 C18        -5.0214   -6.1252    4.6290 C.ar      1 <0>        -0.1068
     26 C19        -5.7596   -4.9661    4.7785 C.ar      1 <0>        -0.1224
     27 C20        -5.7344   -3.9985    3.7917 C.ar      1 <0>        -0.0942
     28 N2         -3.8187    1.5812   -0.0105 N.am      1 <0>        -0.6825
     29 C21        -4.2768    2.0862   -1.1731 C.2       1 <0>         0.6661
     30 O6         -3.7152    1.8161   -2.2162 O.2       1 <0>        -0.5675
     31 O7         -5.3569    2.8901   -1.1786 O.3       1 <0>        -0.3607
     32 C22        -5.7943    3.3975   -2.4668 C.3       1 <0>         0.1312
     33 C23        -7.0068    4.2721   -2.2768 C.ar      1 <0>        -0.1009
     34 C24        -8.2728    3.7197   -2.3302 C.ar      1 <0>        -0.0930
     35 C25        -9.3848    4.5211   -2.1511 C.ar      1 <0>        -0.1240
     36 C26        -9.2310    5.8768   -1.9285 C.ar      1 <0>        -0.1074
     37 C27        -7.9652    6.4302   -1.8807 C.ar      1 <0>        -0.1236
     38 C28        -6.8531    5.6278   -2.0546 C.ar      1 <0>        -0.0921
     39 H2          2.6176   -2.9466   -0.1415 H         1 <0>         0.0554
     40 H3          2.1912   -3.7405    1.3935 H         1 <0>         0.0603
     41 H4          1.3655   -2.2402    0.9081 H         1 <0>         0.0617
     42 H5          5.4716   -2.1309    2.1051 H         1 <0>         0.0593
     43 H6          4.5891   -3.6767    2.0925 H         1 <0>         0.0678
     44 H7          5.0154   -2.8828    0.5575 H         1 <0>         0.0594
     45 H8          2.0058   -1.1849    3.0804 H         1 <0>         0.0636
     46 H9          2.8316   -2.6852    3.5658 H         1 <0>         0.0595
     47 H10         3.7141   -1.1395    3.5783 H         1 <0>         0.0546
     48 H11         3.8563   -0.7769   -0.1239 H         1 <0>         0.0730
     49 H12         4.3125   -0.0251    1.4237 H         1 <0>         0.0731
     50 H13         0.1006    3.6793   -0.8591 H         1 <0>         0.0948
     51 H14         1.8748    3.7673   -0.7469 H         1 <0>         0.0803
     52 H15         1.1083    2.5353   -1.7779 H         1 <0>         0.0637
     53 H16         0.8546    2.2195    2.4813 H         1 <0>         0.0690
     54 H17         1.7267    3.5828    1.7404 H         1 <0>         0.0750
     55 H18        -0.0476    3.4949    1.6282 H         1 <0>         0.0984
     56 H19        -0.0109    0.2651    0.1360 H         1 <0>         0.4081
     57 H20        -1.6543   -0.6876    1.2660 H         1 <0>         0.1312
     58 H21        -2.8039    0.3764    2.1114 H         1 <0>         0.1256
     59 H22        -5.8959   -2.6041    1.5670 H         1 <0>         0.0818
     60 H23        -4.7798   -3.6082    0.6108 H         1 <0>         0.0822
     61 H24        -3.6450   -5.5034    1.6129 H         1 <0>         0.1246
     62 H25        -3.6822   -7.2229    3.3751 H         1 <0>         0.1265
     63 H26        -5.0408   -6.8811    5.4001 H         1 <0>         0.1255
     64 H27        -6.3557   -4.8164    5.6666 H         1 <0>         0.1265
     65 H28        -6.3111   -3.0929    3.9086 H         1 <0>         0.1245
     66 H29        -4.3083    1.7366    0.8123 H         1 <0>         0.4108
     67 H30        -4.9924    3.9813   -2.9187 H         1 <0>         0.0812
     68 H31        -6.0477    2.5620   -3.1194 H         1 <0>         0.0811
     69 H32        -8.3930    2.6612   -2.5082 H         1 <0>         0.1249
     70 H33       -10.3737    4.0888   -2.1888 H         1 <0>         0.1260
     71 H34       -10.0999    6.5036   -1.7923 H         1 <0>         0.1249
     72 H35        -7.8451    7.4894   -1.7072 H         1 <0>         0.1262
     73 H36        -5.8641    6.0602   -2.0173 H         1 <0>         0.1254
@<TRIPOS>BOND
     1    1    2 1
     2    1   39 1
     3    1   40 1
     4    1   41 1
     5    2    3 1
     6    2    4 1
     7    2    5 1
     8    3   42 1
     9    3   43 1
    10    3   44 1
    11    4   45 1
    12    4   46 1
    13    4   47 1
    14    5    6 1
    15    5   48 1
    16    5   49 1
    17    6    7 1
    18    7    8 2
    19    7    9 1
    20    9   10 1
    21    9   11 1
    22    9   12 1
    23   10   50 1
    24   10   51 1
    25   10   52 1
    26   11   53 1
    27   11   54 1
    28   11   55 1
    29   12   13 am
    30   12   56 1
    31   13   14 2
    32   13   15 1
    33   15   16 1
    34   15   17 1
    35   15   28 1
    36   17   18 1
    37   17   57 1
    38   17   58 1
    39   18   19 2
    40   18   20 1
    41   20   21 1
    42   21   22 1
    43   21   59 1
    44   21   60 1
    45   22   27 ar
    46   22   23 ar
    47   23   24 ar
    48   23   61 1
    49   24   25 ar
    50   24   62 1
    51   25   26 ar
    52   25   63 1
    53   26   27 ar
    54   26   64 1
    55   27   65 1
    56   28   29 am
    57   28   66 1
    58   29   30 2
    59   29   31 1
    60   31   32 1
    61   32   33 1
    62   32   67 1
    63   32   68 1
    64   33   38 ar
    65   33   34 ar
    66   34   35 ar
    67   34   69 1
    68   35   36 ar
    69   35   70 1
    70   36   37 ar
    71   36   71 1
    72   37   38 ar
    73   37   72 1
    74   38   73 1
@<TRIPOS>MOLECULE
ZINC34701544
   85    87     0     0     0
SMALL
USER_CHARGES

@<TRIPOS>ATOM
      1 C1         -0.6502    0.8755    1.3982 C.3       1 <0>        -0.1539
      2 C2         -0.5826   -0.5927    0.9731 C.3       1 <0>        -0.1255
      3 C3         -1.9306   -1.0164    0.3863 C.3       1 <0>        -0.1207
      4 C4         -1.8630   -2.4846   -0.0388 C.3       1 <0>        -0.1055
      5 C5         -3.2110   -2.9082   -0.6256 C.3       1 <0>        -0.1043
      6 H1         -4.0023   -2.7003    0.0947 H         1 <0>         0.0924
      7 C6         -3.4752   -2.1257   -1.9135 C.3       1 <0>        -0.1133
      8 C7         -2.4044   -2.4727   -2.9498 C.3       1 <0>        -0.1611
      9 C8         -3.1846   -4.3838   -0.9308 C.2       1 <0>         0.5213
     10 O1         -2.1327   -4.9320   -1.1840 O.2       1 <0>        -0.5135
     11 N1         -4.3299   -5.0943   -0.9224 N.am      1 <0>        -0.6769
     12 C9         -4.3292   -6.4298   -1.3480 C.ar      1 <0>         0.1307
     13 C10        -3.2449   -7.2509   -1.0539 C.ar      1 <0>        -0.0838
     14 C11        -3.2343   -8.5663   -1.4680 C.ar      1 <0>        -0.1172
     15 C12        -4.3087   -9.0814   -2.1825 C.ar      1 <0>         0.2280
     16 C13        -5.4053   -8.2591   -2.4819 C.ar      1 <0>        -0.1364
     17 C14        -5.4090   -6.9290   -2.0540 C.ar      1 <0>        -0.1073
     18 C15        -6.5500   -8.7969   -3.2397 C.2       1 <0>         0.5606
     19 O2         -6.5834   -9.9760   -3.5353 O.2       1 <0>        -0.5098
     20 N2         -7.5593   -7.9818   -3.6048 N.am      1 <0>        -0.7323
     21 C16        -8.6967   -8.5163   -4.3578 C.3       1 <0>         0.1258
     22 C17        -9.6934   -7.3911   -4.6431 C.3       1 <0>        -0.1309
     23 C18       -10.8813   -7.9493   -5.4295 C.3       1 <0>         0.0661
     24 O3        -11.8122   -6.8984   -5.6960 O.3       1 <0>        -0.3907
     25 C19       -12.9652   -7.3155   -6.4300 C.3       1 <0>         0.0574
     26 C20       -13.8871   -6.1157   -6.6565 C.3       1 <0>        -0.1527
     27 N3         -4.2970  -10.4078   -2.6001 N.pl3     1 <0>        -0.6617
     28 C21        -4.7519  -11.4790   -1.7032 C.3       1 <0>         0.1553
     29 C22        -3.6516  -12.5403   -1.6049 C.3       1 <0>        -0.1305
     30 C23        -3.2785  -13.0143   -3.0114 C.3       1 <0>        -0.0736
     31 C24        -2.7400  -11.8340   -3.8232 C.3       1 <0>        -0.1309
     32 C25        -3.8353  -10.7641   -3.9486 C.3       1 <0>         0.1551
     33 C26        -2.2041  -14.0994   -2.9154 C.3       1 <0>        -0.0781
     34 C27        -1.9247  -14.6526   -4.2890 C.ar      1 <0>        -0.0760
     35 C28        -2.6505  -15.7304   -4.7609 C.ar      1 <0>        -0.1187
     36 C29        -2.3943  -16.2379   -6.0209 C.ar      1 <0>        -0.1182
     37 C30        -1.4125  -15.6674   -6.8093 C.ar      1 <0>        -0.1268
     38 C31        -0.6873  -14.5890   -6.3378 C.ar      1 <0>        -0.1191
     39 C32        -0.9465  -14.0788   -5.0795 C.ar      1 <0>        -0.1167
     40 H2          0.3101    1.1773    1.8162 H         1 <0>         0.0540
     41 H3         -0.8797    1.4946    0.5309 H         1 <0>         0.0536
     42 H4         -1.4292    1.0005    2.1502 H         1 <0>         0.0533
     43 H5          0.1964   -0.7177    0.2210 H         1 <0>         0.0621
     44 H6         -0.3531   -1.2119    1.8403 H         1 <0>         0.0612
     45 H7         -2.7096   -0.8914    1.1384 H         1 <0>         0.0619
     46 H8         -2.1601   -0.3972   -0.4809 H         1 <0>         0.0663
     47 H9         -1.0840   -2.6096   -0.7909 H         1 <0>         0.0792
     48 H10        -1.6335   -3.1037    0.8284 H         1 <0>         0.0655
     49 H11        -4.4580   -2.3898   -2.3040 H         1 <0>         0.0654
     50 H12        -3.4435   -1.0568   -1.7022 H         1 <0>         0.0810
     51 H13        -1.4477   -2.0537   -2.6380 H         1 <0>         0.0607
     52 H14        -2.3168   -3.5560   -3.0330 H         1 <0>         0.0609
     53 H15        -2.6859   -2.0556   -3.9167 H         1 <0>         0.0556
     54 H16        -5.1546   -4.6814   -0.6218 H         1 <0>         0.4110
     55 H17        -2.4070   -6.8558   -0.4988 H         1 <0>         0.1427
     56 H18        -2.3889   -9.1972   -1.2366 H         1 <0>         0.1326
     57 H19        -6.2514   -6.2910   -2.2772 H         1 <0>         0.1263
     58 H20        -7.5327   -7.0413   -3.3691 H         1 <0>         0.3976
     59 H21        -8.3437   -8.9364   -5.2996 H         1 <0>         0.0699
     60 H22        -9.1858   -9.2953   -3.7730 H         1 <0>         0.0702
     61 H23       -10.0464   -6.9709   -3.7013 H         1 <0>         0.0781
     62 H24        -9.2044   -6.6121   -5.2279 H         1 <0>         0.0781
     63 H25       -10.5283   -8.3695   -6.3713 H         1 <0>         0.0528
     64 H26       -11.3703   -8.7283   -4.8447 H         1 <0>         0.0529
     65 H27       -12.6554   -7.7225   -7.3925 H         1 <0>         0.0493
     66 H28       -13.4975   -8.0814   -5.8659 H         1 <0>         0.0493
     67 H29       -14.7666   -6.4339   -7.2164 H         1 <0>         0.0723
     68 H30       -14.1969   -5.7087   -5.6940 H         1 <0>         0.0631
     69 H31       -13.3548   -5.3498   -7.2205 H         1 <0>         0.0631
     70 H32        -4.9517  -11.0671   -0.7140 H         1 <0>         0.0610
     71 H33        -5.6599  -11.9299   -2.1037 H         1 <0>         0.0559
     72 H34        -2.7743  -12.1111   -1.1210 H         1 <0>         0.0629
     73 H35        -4.0131  -13.3860   -1.0200 H         1 <0>         0.0665
     74 H36        -4.1619  -13.4208   -3.5039 H         1 <0>         0.0709
     75 H37        -1.8713  -11.4114   -3.3184 H         1 <0>         0.0612
     76 H38        -2.4527  -12.1770   -4.8172 H         1 <0>         0.0697
     77 H39        -4.6700  -11.1579   -4.5285 H         1 <0>         0.0564
     78 H40        -3.4301   -9.8803   -4.4414 H         1 <0>         0.0583
     79 H41        -1.2905  -13.6706   -2.5037 H         1 <0>         0.0707
     80 H42        -2.5544  -14.9010   -2.2652 H         1 <0>         0.0711
     81 H43        -3.4176  -16.1761   -4.1449 H         1 <0>         0.1195
     82 H44        -2.9609  -17.0803   -6.3892 H         1 <0>         0.1200
     83 H45        -1.2118  -16.0643   -7.7934 H         1 <0>         0.1194
     84 H46         0.0799  -14.1435   -6.9536 H         1 <0>         0.1200
     85 H47        -0.3825  -13.2340   -4.7126 H         1 <0>         0.1199
@<TRIPOS>BOND
     1    1    2 1
     2    1   40 1
     3    1   41 1
     4    1   42 1
     5    2    3 1
     6    2   43 1
     7    2   44 1
     8    3    4 1
     9    3   45 1
    10    3   46 1
    11    4    5 1
    12    4   47 1
    13    4   48 1
    14    5    6 1
    15    5    7 1
    16    5    9 1
    17    7    8 1
    18    7   49 1
    19    7   50 1
    20    8   51 1
    21    8   52 1
    22    8   53 1
    23    9   10 2
    24    9   11 am
    25   11   12 1
    26   11   54 1
    27   12   17 ar
    28   12   13 ar
    29   13   14 ar
    30   13   55 1
    31   14   15 ar
    32   14   56 1
    33   15   16 ar
    34   15   27 1
    35   16   17 ar
    36   16   18 1
    37   17   57 1
    38   18   19 2
    39   18   20 am
    40   20   21 1
    41   20   58 1
    42   21   22 1
    43   21   59 1
    44   21   60 1
    45   22   23 1
    46   22   61 1
    47   22   62 1
    48   23   24 1
    49   23   63 1
    50   23   64 1
    51   24   25 1
    52   25   26 1
    53   25   65 1
    54   25   66 1
    55   26   67 1
    56   26   68 1
    57   26   69 1
    58   27   32 1
    59   27   28 1
    60   28   29 1
    61   28   70 1
    62   28   71 1
    63   29   30 1
    64   29   72 1
    65   29   73 1
    66   30   31 1
    67   30   33 1
    68   30   74 1
    69   31   32 1
    70   31   75 1
    71   31   76 1
    72   32   77 1
    73   32   78 1
    74   33   34 1
    75   33   79 1
    76   33   80 1
    77   34   39 ar
    78   34   35 ar
    79   35   36 ar
    80   35   81 1
    81   36   37 ar
    82   36   82 1
    83   37   38 ar
    84   37   83 1
    85   38   39 ar
    86   38   84 1
    87   39   85 1
@<TRIPOS>MOLECULE
ZINC36496468
   76    77     0     0     0
SMALL
USER_CHARGES

@<TRIPOS>ATOM
      1 C1          2.0174    1.1685   -1.3427 C.3       1 <0>        -0.1535
      2 C2          2.3716   -0.3056   -1.1363 C.3       1 <0>        -0.1246
      3 C3          1.5344   -0.8756    0.0105 C.3       1 <0>        -0.1195
      4 C4          1.8886   -2.3497    0.2168 C.3       1 <0>        -0.1048
      5 C5          1.0514   -2.9197    1.3636 C.3       1 <0>        -0.1087
      6 H1          1.1937   -2.3095    2.2555 H         1 <0>         0.0916
      7 C6         -0.4270   -2.9100    0.9695 C.3       1 <0>        -0.1142
      8 C7         -1.2739   -3.3764    2.1553 C.3       1 <0>        -0.1606
      9 C8          1.4862   -4.3343    1.6481 C.2       1 <0>         0.5346
     10 O1          1.5641   -5.1383    0.7434 O.2       1 <0>        -0.5295
     11 N1          1.7884   -4.7059    2.9078 N.am      1 <0>        -0.5867
     12 C9          1.8076   -3.7089    3.9810 C.3       1 <0>         0.1886
     13 C10         3.1467   -3.0180    4.0010 C.2       1 <0>        -0.0367
     14 C11         3.4388   -1.8509    3.3993 C.2       1 <0>        -0.1929
     15 C12         4.7982   -1.5771    3.6746 C.2       1 <0>        -0.2125
     16 C13         5.2556   -2.5933    4.4279 C.2       1 <0>        -0.0348
     17 O2          4.2494   -3.4602    4.6273 O.3       1 <0>        -0.1668
     18 C14         2.0978   -6.1069    3.2039 C.3       1 <0>         0.1597
     19 H2          2.1362   -6.6749    2.2744 H         1 <0>         0.1297
     20 C15         3.4322   -6.1906    3.8992 C.2       1 <0>        -0.1778
     21 C16         4.4384   -6.7928    3.3152 C.2       1 <0>        -0.1110
     22 C17         5.7728   -6.8764    4.0105 C.3       1 <0>        -0.0924
     23 C18         6.2122   -8.3395    4.0968 C.3       1 <0>        -0.1202
     24 C19         7.5669   -8.4244    4.8026 C.3       1 <0>        -0.1545
     25 C20         1.0286   -6.6793    4.0984 C.2       1 <0>         0.5139
     26 O3          0.2750   -5.9383    4.6934 O.2       1 <0>        -0.5090
     27 N2          0.9097   -8.0146    4.2372 N.am      1 <0>        -0.7022
     28 C21        -0.1298   -8.5710    5.1068 C.3       1 <0>        -0.3602
     29 S1         -1.5930   -8.9792    4.1153 S.o2      1 <0>         2.4700
     30 O4         -2.5875   -9.5787    4.9343 O.2       1 <0>        -0.9318
     31 O5         -1.9191   -7.8961    3.2553 O.2       1 <0>        -0.9170
     32 C22        -1.0634  -10.2670    3.0356 C.ar      1 <0>        -0.6664
     33 C23        -0.5264   -9.9562    1.8003 C.ar      1 <0>        -0.0165
     34 C24        -0.1110  -10.9665    0.9533 C.ar      1 <0>        -0.1401
     35 C25        -0.2320  -12.2876    1.3417 C.ar      1 <0>        -0.0270
     36 C26        -0.7682  -12.5984    2.5773 C.ar      1 <0>        -0.1409
     37 C27        -1.1797  -11.5879    3.4261 C.ar      1 <0>        -0.0204
     38 C28         0.2200  -13.3891    0.4178 C.3       1 <0>        -0.1270
     39 H3          2.2272    1.7240   -0.4286 H         1 <0>         0.0533
     40 H4          2.6138    1.5745   -2.1596 H         1 <0>         0.0534
     41 H5          0.9588    1.2570   -1.5867 H         1 <0>         0.0539
     42 H6          2.1618   -0.8611   -2.0504 H         1 <0>         0.0619
     43 H7          3.4302   -0.3942   -0.8922 H         1 <0>         0.0605
     44 H8          1.7442   -0.3201    0.9245 H         1 <0>         0.0617
     45 H9          0.4758   -0.7870   -0.2336 H         1 <0>         0.0680
     46 H10         1.6788   -2.9052   -0.6972 H         1 <0>         0.0752
     47 H11         2.9472   -2.4382    0.4609 H         1 <0>         0.0652
     48 H12        -0.7213   -1.8989    0.6882 H         1 <0>         0.0793
     49 H13        -0.5824   -3.5818    0.1254 H         1 <0>         0.0731
     50 H14        -2.3197   -3.4353    1.8539 H         1 <0>         0.0609
     51 H15        -0.9335   -4.3595    2.4805 H         1 <0>         0.0601
     52 H16        -1.1717   -2.6667    2.9762 H         1 <0>         0.0551
     53 H17         1.0219   -2.9735    3.8079 H         1 <0>         0.1155
     54 H18         1.6390   -4.2022    4.9383 H         1 <0>         0.1101
     55 H19         2.7643   -1.2404    2.8172 H         1 <0>         0.1481
     56 H20         5.3615   -0.7173    3.3432 H         1 <0>         0.1475
     57 H21         6.2605   -2.6931    4.8109 H         1 <0>         0.2005
     58 H22         3.5590   -5.7541    4.8789 H         1 <0>         0.1241
     59 H23         4.3117   -7.2293    2.3356 H         1 <0>         0.1135
     60 H24         6.5124   -6.3076    3.4470 H         1 <0>         0.0758
     61 H25         5.6855   -6.4635    5.0155 H         1 <0>         0.0698
     62 H26         5.4726   -8.9083    4.6603 H         1 <0>         0.0621
     63 H27         6.2995   -8.7524    3.0918 H         1 <0>         0.0635
     64 H28         8.3065   -7.8556    4.2391 H         1 <0>         0.0547
     65 H29         7.4795   -8.0114    5.8076 H         1 <0>         0.0542
     66 H30         7.8799   -9.4667    4.8641 H         1 <0>         0.0555
     67 H31         1.5123   -8.6072    3.7614 H         1 <0>         0.4143
     68 H32         0.2452   -9.4734    5.5898 H         1 <0>         0.1462
     69 H33        -0.3989   -7.8373    5.8667 H         1 <0>         0.1565
     70 H34        -0.4318   -8.9240    1.4969 H         1 <0>         0.1403
     71 H35         0.3079  -10.7237   -0.0121 H         1 <0>         0.1340
     72 H36        -0.8631  -13.6306    2.8806 H         1 <0>         0.1339
     73 H37        -1.5951  -11.8306    4.3931 H         1 <0>         0.1418
     74 H38         1.2679  -13.6183    0.6112 H         1 <0>         0.0804
     75 H39        -0.3847  -14.2794    0.5907 H         1 <0>         0.0738
     76 H40         0.1036  -13.0662   -0.6168 H         1 <0>         0.0739
@<TRIPOS>BOND
     1    1    2 1
     2    1   39 1
     3    1   40 1
     4    1   41 1
     5    2    3 1
     6    2   42 1
     7    2   43 1
     8    3    4 1
     9    3   44 1
    10    3   45 1
    11    4    5 1
    12    4   46 1
    13    4   47 1
    14    5    6 1
    15    5    7 1
    16    5    9 1
    17    7    8 1
    18    7   48 1
    19    7   49 1
    20    8   50 1
    21    8   51 1
    22    8   52 1
    23    9   10 2
    24    9   11 am
    25   11   12 1
    26   11   18 1
    27   12   13 1
    28   12   53 1
    29   12   54 1
    30   13   17 1
    31   13   14 2
    32   14   15 1
    33   14   55 1
    34   15   16 2
    35   15   56 1
    36   16   17 1
    37   16   57 1
    38   18   19 1
    39   18   20 1
    40   18   25 1
    41   20   21 2
    42   20   58 1
    43   21   22 1
    44   21   59 1
    45   22   23 1
    46   22   60 1
    47   22   61 1
    48   23   24 1
    49   23   62 1
    50   23   63 1
    51   24   64 1
    52   24   65 1
    53   24   66 1
    54   25   26 2
    55   25   27 am
    56   27   28 1
    57   27   67 1
    58   28   29 1
    59   28   68 1
    60   28   69 1
    61   29   30 2
    62   29   31 2
    63   29   32 1
    64   32   37 ar
    65   32   33 ar
    66   33   34 ar
    67   33   70 1
    68   34   35 ar
    69   34   71 1
    70   35   36 ar
    71   35   38 1
    72   36   37 ar
    73   36   72 1
    74   37   73 1
    75   38   74 1
    76   38   75 1
    77   38   76 1
@<TRIPOS>MOLECULE
ZINC36557489
   77    78     0     0     0
SMALL
USER_CHARGES

@<TRIPOS>ATOM
      1 C1         -2.7611   -0.5672   -0.9943 C.3       1 <0>        -0.1543
      2 C2         -2.2092   -1.9871   -0.8519 C.3       1 <0>        -0.1260
      3 C3         -1.4421   -2.1063    0.4666 C.3       1 <0>        -0.1207
      4 C4         -0.8902   -3.5262    0.6090 C.3       1 <0>        -0.1165
      5 C5         -0.1232   -3.6454    1.9274 C.3       1 <0>        -0.1021
      6 C6          0.4204   -5.0439    2.0676 C.2       1 <0>        -0.0483
      7 C7          1.7203   -5.2345    2.2742 C.2       1 <0>        -0.2261
      8 C8          2.2509   -6.5996    2.4110 C.2       1 <0>         0.5599
      9 O1          1.5009   -7.5540    2.3354 O.2       1 <0>        -0.5379
     10 N1          3.5683   -6.7928    2.6203 N.am      1 <0>        -0.5838
     11 C9          4.4717   -5.6431    2.7115 C.3       1 <0>         0.1924
     12 C10         4.8866   -5.2192    1.3262 C.2       1 <0>        -0.0380
     13 C11         4.2952   -4.2648    0.5854 C.2       1 <0>        -0.1871
     14 C12         5.0033   -4.1971   -0.6365 C.2       1 <0>        -0.2131
     15 C13         5.9851   -5.1141   -0.5693 C.2       1 <0>        -0.0067
     16 O2          5.9131   -5.7262    0.6240 O.3       1 <0>        -0.1656
     17 C14         6.9975   -5.4021   -1.6478 C.3       1 <0>        -0.0753
     18 C15         4.0967   -8.1523    2.7567 C.3       1 <0>         0.1620
     19 H1          3.3031   -8.8723    2.5570 H         1 <0>         0.1299
     20 C16         5.2192   -8.3560    1.7720 C.2       1 <0>        -0.1771
     21 C17         5.0892   -9.2262    0.8014 C.2       1 <0>        -0.1114
     22 C18         6.2116   -9.4300   -0.1833 C.3       1 <0>        -0.0923
     23 C19         6.5965  -10.9104   -0.2188 C.3       1 <0>        -0.1202
     24 C20         7.7361  -11.1172   -1.2185 C.3       1 <0>        -0.1544
     25 C21         4.6151   -8.3516    4.1576 C.2       1 <0>         0.5148
     26 O3          4.8644   -7.3908    4.8544 O.2       1 <0>        -0.5099
     27 N2          4.8017   -9.5977    4.6362 N.am      1 <0>        -0.7023
     28 C22         5.3056   -9.7915    5.9980 C.3       1 <0>        -0.3600
     29 S1          3.9094  -10.0320    7.1309 S.o2      1 <0>         2.4699
     30 O4          4.3842  -10.2844    8.4462 O.2       1 <0>        -0.9318
     31 O5          2.9137   -9.0456    6.8969 O.2       1 <0>        -0.9173
     32 C23         3.1691  -11.5477    6.6217 C.ar      1 <0>        -0.6662
     33 C24         2.1697  -11.5422    5.6667 C.ar      1 <0>        -0.0164
     34 C25         1.5889  -12.7313    5.2672 C.ar      1 <0>        -0.1401
     35 C26         2.0078  -13.9260    5.8223 C.ar      1 <0>        -0.0273
     36 C27         3.0078  -13.9316    6.7767 C.ar      1 <0>        -0.1410
     37 C28         3.5916  -12.7429    7.1730 C.ar      1 <0>        -0.0203
     38 C29         1.3739  -15.2222    5.3875 C.3       1 <0>        -0.1268
     39 H2         -1.9364    0.1455   -0.9880 H         1 <0>         0.0535
     40 H3         -3.3075   -0.4823   -1.9336 H         1 <0>         0.0536
     41 H4         -3.4325   -0.3533   -0.1627 H         1 <0>         0.0538
     42 H5         -3.0339   -2.6998   -0.8582 H         1 <0>         0.0613
     43 H6         -1.5377   -2.2010   -1.6835 H         1 <0>         0.0607
     44 H7         -0.6174   -1.3936    0.4729 H         1 <0>         0.0626
     45 H8         -2.1136   -1.8924    1.2982 H         1 <0>         0.0633
     46 H9         -1.7149   -4.2389    0.6027 H         1 <0>         0.0666
     47 H10        -0.2188   -3.7401   -0.2226 H         1 <0>         0.0649
     48 H11         0.7015   -2.9327    1.9337 H         1 <0>         0.0734
     49 H12        -0.7946   -3.4315    2.7590 H         1 <0>         0.0858
     50 H13        -0.2456   -5.8914    2.0004 H         1 <0>         0.1275
     51 H14         2.3863   -4.3870    2.3414 H         1 <0>         0.1292
     52 H15         3.9603   -4.8174    3.2063 H         1 <0>         0.1146
     53 H16         5.3553   -5.9201    3.2866 H         1 <0>         0.1104
     54 H17         3.4427   -3.6656    0.8693 H         1 <0>         0.1470
     55 H18         4.7956   -3.5361   -1.4649 H         1 <0>         0.1463
     56 H19         7.8718   -4.7672   -1.5042 H         1 <0>         0.0812
     57 H20         7.2961   -6.4490   -1.5956 H         1 <0>         0.0748
     58 H21         6.5567   -5.1982   -2.6236 H         1 <0>         0.0880
     59 H22         6.1307   -7.7846    1.8664 H         1 <0>         0.1240
     60 H23         4.1776   -9.7977    0.7070 H         1 <0>         0.1138
     61 H24         5.8867   -9.1151   -1.1749 H         1 <0>         0.0758
     62 H25         7.0743   -8.8375    0.1215 H         1 <0>         0.0695
     63 H26         6.9215  -11.2252    0.7728 H         1 <0>         0.0623
     64 H27         5.7338  -11.5028   -0.5236 H         1 <0>         0.0636
     65 H28         7.4111  -10.8024   -2.2102 H         1 <0>         0.0548
     66 H29         8.5988  -10.5248   -0.9138 H         1 <0>         0.0543
     67 H30         8.0102  -12.1719   -1.2439 H         1 <0>         0.0556
     68 H31         4.6023  -10.3662    4.0789 H         1 <0>         0.4145
     69 H32         5.9509  -10.6695    6.0252 H         1 <0>         0.1464
     70 H33         5.8741   -8.9131    6.3035 H         1 <0>         0.1563
     71 H34         1.8423  -10.6089    5.2329 H         1 <0>         0.1408
     72 H35         0.8075  -12.7269    4.5216 H         1 <0>         0.1340
     73 H36         3.3349  -14.8649    7.2106 H         1 <0>         0.1338
     74 H37         4.3755  -12.7476    7.9159 H         1 <0>         0.1419
     75 H38         1.9269  -15.6314    4.5420 H         1 <0>         0.0804
     76 H39         1.3958  -15.9325    6.2140 H         1 <0>         0.0737
     77 H40         0.3406  -15.0402    5.0921 H         1 <0>         0.0739
@<TRIPOS>BOND
     1    1    2 1
     2    1   39 1
     3    1   40 1
     4    1   41 1
     5    2    3 1
     6    2   42 1
     7    2   43 1
     8    3    4 1
     9    3   44 1
    10    3   45 1
    11    4    5 1
    12    4   46 1
    13    4   47 1
    14    5    6 1
    15    5   48 1
    16    5   49 1
    17    6    7 2
    18    6   50 1
    19    7    8 1
    20    7   51 1
    21    8    9 2
    22    8   10 am
    23   10   11 1
    24   10   18 1
    25   11   12 1
    26   11   52 1
    27   11   53 1
    28   12   16 1
    29   12   13 2
    30   13   14 1
    31   13   54 1
    32   14   15 2
    33   14   55 1
    34   15   16 1
    35   15   17 1
    36   17   56 1
    37   17   57 1
    38   17   58 1
    39   18   19 1
    40   18   20 1
    41   18   25 1
    42   20   21 2
    43   20   59 1
    44   21   22 1
    45   21   60 1
    46   22   23 1
    47   22   61 1
    48   22   62 1
    49   23   24 1
    50   23   63 1
    51   23   64 1
    52   24   65 1
    53   24   66 1
    54   24   67 1
    55   25   26 2
    56   25   27 am
    57   27   28 1
    58   27   68 1
    59   28   29 1
    60   28   69 1
    61   28   70 1
    62   29   30 2
    63   29   31 2
    64   29   32 1
    65   32   37 ar
    66   32   33 ar
    67   33   34 ar
    68   33   71 1
    69   34   35 ar
    70   34   72 1
    71   35   36 ar
    72   35   38 1
    73   36   37 ar
    74   36   73 1
    75   37   74 1
    76   38   75 1
    77   38   76 1
    78   38   77 1
@<TRIPOS>MOLECULE
ZINC40020284
   76    78     0     0     0
SMALL
USER_CHARGES

@<TRIPOS>ATOM
      1 C1          1.0077    0.9250    0.0481 C.3       1 <0>        -0.1572
      2 C2          0.7987   -0.5827    0.2040 C.3       1 <0>        -0.1218
      3 C3         -0.6997   -0.8866    0.2616 C.3       1 <0>        -0.1469
      4 C4         -0.9087   -2.3942    0.4175 C.3       1 <0>        -0.0171
      5 N1         -2.3385   -2.6734    0.6062 N.4       1 <0>        -0.3848
      6 C5         -3.0722   -2.3186   -0.6160 C.3       1 <0>        -0.0126
      7 C6         -4.5747   -2.4729   -0.3719 C.3       1 <0>        -0.1511
      8 C7         -5.3443   -1.9729   -1.5961 C.3       1 <0>        -0.1192
      9 C8         -6.8468   -2.1272   -1.3520 C.3       1 <0>        -0.1588
     10 C9         -2.5249   -4.1023    0.8917 C.3       1 <0>        -0.0098
     11 C10        -1.8656   -4.4454    2.2291 C.3       1 <0>        -0.1712
     12 C11        -2.0597   -5.9336    2.5265 C.3       1 <0>         0.1443
     13 N2         -1.4284   -6.2621    3.8070 N.am      1 <0>        -0.6170
     14 C12        -0.0393   -6.6951    3.9991 C.3       1 <0>         0.3100
     15 H1          0.6457   -5.9226    3.6496 H         1 <0>         0.0928
     16 C13         0.1337   -6.9094    5.4846 C.2       1 <0>        -0.5069
     17 C14        -1.0559   -6.6200    6.0622 C.2       1 <0>         0.2669
     18 C15        -2.0178   -6.2146    5.0155 C.2       1 <0>         0.5187
     19 O1         -3.1710   -5.8890    5.2165 O.2       1 <0>        -0.5254
     20 O2         -1.3209   -6.6867    7.3871 O.3       1 <0>        -0.6363
     21 C16         1.3542   -7.3468    6.1685 C.2       1 <0>         0.5013
     22 O3          1.3840   -8.4264    6.7287 O.2       1 <0>        -0.4597
     23 C17         2.5492   -6.4759    6.1776 C.ar      1 <0>        -0.0976
     24 C18         2.4806   -5.1860    5.6458 C.ar      1 <0>        -0.1055
     25 C19         3.5974   -4.3765    5.6560 C.ar      1 <0>        -0.0993
     26 C20         4.7866   -4.8378    6.1910 C.ar      1 <0>        -0.1942
     27 C21         4.8645   -6.1185    6.7219 C.ar      1 <0>         0.1168
     28 C22         3.7481   -6.9375    6.7226 C.ar      1 <0>        -0.1041
     29 O4          6.0357   -6.5662    7.2462 O.3       1 <0>        -0.3156
     30 C23         7.1453   -5.6662    7.2178 C.3       1 <0>         0.0552
     31 C24         8.3658   -6.3413    7.8469 C.3       1 <0>        -0.1533
     32 C25         0.2095   -7.9824    3.2561 C.2       1 <0>         0.0002
     33 C26         1.3501   -8.3204    2.6282 C.2       1 <0>        -0.2145
     34 C27         1.1457   -9.6031    2.0700 C.2       1 <0>        -0.2109
     35 C28        -0.1075   -9.9723    2.3901 C.2       1 <0>        -0.0232
     36 O5         -0.6678   -8.9891    3.1135 O.3       1 <0>        -0.1606
     37 C29        -0.7688  -11.2711    2.0069 C.3       1 <0>        -0.0723
     38 H2          2.0751    1.1415    0.0071 H         1 <0>         0.0653
     39 H3          0.5325    1.2643   -0.8723 H         1 <0>         0.0570
     40 H4          0.5642    1.4431    0.8984 H         1 <0>         0.0589
     41 H5          1.2421   -1.1008   -0.6462 H         1 <0>         0.0725
     42 H6          1.2738   -0.9220    1.1244 H         1 <0>         0.0752
     43 H7         -1.1432   -0.3684    1.1118 H         1 <0>         0.0852
     44 H8         -1.1749   -0.5472   -0.6588 H         1 <0>         0.0846
     45 H9         -0.5539   -2.9047   -0.4778 H         1 <0>         0.1296
     46 H10        -0.3515   -2.7505    1.2839 H         1 <0>         0.1353
     47 H11        -2.8520   -1.2854   -0.8849 H         1 <0>         0.1299
     48 H12        -2.7664   -2.9784   -1.4279 H         1 <0>         0.1287
     49 H13        -4.8088   -3.5234   -0.1997 H         1 <0>         0.0891
     50 H14        -4.8627   -1.8884    0.5019 H         1 <0>         0.0861
     51 H15        -5.1102   -0.9223   -1.7683 H         1 <0>         0.0710
     52 H16        -5.0562   -2.5573   -2.4699 H         1 <0>         0.0720
     53 H17        -7.0809   -3.1777   -1.1798 H         1 <0>         0.0599
     54 H18        -7.1348   -1.5428   -0.4781 H         1 <0>         0.0592
     55 H19        -7.3950   -1.7710   -2.2241 H         1 <0>         0.0645
     56 H20        -3.5903   -4.3265    0.9438 H         1 <0>         0.1341
     57 H21        -2.0675   -4.6940    0.0987 H         1 <0>         0.1313
     58 H22        -0.8002   -4.2212    2.1770 H         1 <0>         0.0906
     59 H23        -2.3230   -3.8537    3.0220 H         1 <0>         0.0933
     60 H24        -3.1251   -6.1578    2.5785 H         1 <0>         0.0880
     61 H25        -1.6022   -6.5252    1.7335 H         1 <0>         0.0838
     62 H26         1.5539   -4.8229    5.2267 H         1 <0>         0.1308
     63 H27         3.5432   -3.3794    5.2446 H         1 <0>         0.1232
     64 H28         5.6579   -4.1997    6.1955 H         1 <0>         0.1256
     65 H29         3.8063   -7.9322    7.1393 H         1 <0>         0.1381
     66 H30         7.3699   -5.3988    6.1853 H         1 <0>         0.0598
     67 H31         6.8976   -4.7662    7.7806 H         1 <0>         0.0606
     68 H32         8.1411   -6.6087    8.8794 H         1 <0>         0.0672
     69 H33         8.6135   -7.2413    7.2841 H         1 <0>         0.0664
     70 H34         9.2121   -5.6548    7.8252 H         1 <0>         0.0772
     71 H35         2.2493   -7.7257    2.5626 H         1 <0>         0.1430
     72 H36         1.8588  -10.1765    1.4963 H         1 <0>         0.1431
     73 H37        -0.5800  -12.0167    2.7792 H         1 <0>         0.0805
     74 H38        -1.8430  -11.1161    1.9064 H         1 <0>         0.0721
     75 H39        -0.3617  -11.6199    1.0578 H         1 <0>         0.0848
     76 H40        -2.6887   -2.1275    1.3791 H         1 <0>         0.4233
@<TRIPOS>BOND
     1    1    2 1
     2    1   38 1
     3    1   39 1
     4    1   40 1
     5    2    3 1
     6    2   41 1
     7    2   42 1
     8    3    4 1
     9    3   43 1
    10    3   44 1
    11    4    5 1
    12    4   45 1
    13    4   46 1
    14    5    6 1
    15    5   10 1
    16    5   76 1
    17    6    7 1
    18    6   47 1
    19    6   48 1
    20    7    8 1
    21    7   49 1
    22    7   50 1
    23    8    9 1
    24    8   51 1
    25    8   52 1
    26    9   53 1
    27    9   54 1
    28    9   55 1
    29   10   11 1
    30   10   56 1
    31   10   57 1
    32   11   12 1
    33   11   58 1
    34   11   59 1
    35   12   13 1
    36   12   60 1
    37   12   61 1
    38   13   18 am
    39   13   14 1
    40   14   15 1
    41   14   16 1
    42   14   32 1
    43   16   17 2
    44   16   21 1
    45   17   18 1
    46   17   20 1
    47   18   19 2
    48   21   22 2
    49   21   23 1
    50   23   28 ar
    51   23   24 ar
    52   24   25 ar
    53   24   62 1
    54   25   26 ar
    55   25   63 1
    56   26   27 ar
    57   26   64 1
    58   27   28 ar
    59   27   29 1
    60   28   65 1
    61   29   30 1
    62   30   31 1
    63   30   66 1
    64   30   67 1
    65   31   68 1
    66   31   69 1
    67   31   70 1
    68   32   36 1
    69   32   33 2
    70   33   34 1
    71   33   71 1
    72   34   35 2
    73   34   72 1
    74   35   36 1
    75   35   37 1
    76   37   73 1
    77   37   74 1
    78   37   75 1
@<TRIPOS>MOLECULE
ZINC02207834
   58    59     0     0     0
SMALL
USER_CHARGES
4-ethoxycarbonyl-7-methyl-4-[2-(p-tolylamino)thiazol-4-yl]-octanoic acid
@<TRIPOS>ATOM
      1 C1          6.4763    0.1794    2.8096 C.3       1 <0>        -0.1513
      2 C2          5.0806    0.8063    2.7970 C.3       1 <0>         0.0637
      3 O1          4.5430    0.7634    1.4489 O.3       1 <0>        -0.3575
      4 C3          3.3168    1.2776    1.2652 C.2       1 <0>         0.4739
      5 O2          2.7127    1.7479    2.2000 O.2       1 <0>        -0.4693
      6 C4          2.6935    1.2683   -0.1068 C.3       1 <0>         0.0230
      7 C5          3.5755    2.0617   -1.0730 C.3       1 <0>        -0.1048
      8 C6          3.6971    3.5062   -0.5835 C.3       1 <0>        -0.1095
      9 C7          4.6733    4.2686   -1.4816 C.3       1 <0>        -0.0960
     10 C8          4.0952    4.3675   -2.8948 C.3       1 <0>        -0.1480
     11 C9          4.8908    5.6751   -0.9201 C.3       1 <0>        -0.1450
     12 C10         2.5669   -0.1745   -0.5997 C.3       1 <0>        -0.0851
     13 C11         1.7176   -0.9780    0.3874 C.3       1 <0>        -0.1546
     14 C12         1.6890   -2.4241   -0.0357 C.2       1 <0>         0.4635
     15 O3          2.2866   -2.7760   -1.0251 O.co2     1 <0>        -0.6398
     16 C13         1.3263    1.8988   -0.0418 C.2       1 <0>         0.1182
     17 C14         0.4321    1.7192   -1.0435 C.2       1 <0>        -0.2359
     18 S1         -0.9486    2.6744   -0.4320 S.3       1 <0>         0.0379
     19 C15        -0.2220    3.1947    1.0569 C.2       1 <0>         0.3211
     20 N1          0.9728    2.6387    0.9920 N.2       1 <0>        -0.5096
     21 N2         -0.7579    3.9946    2.0552 N.pl3     1 <0>        -0.6181
     22 C16        -2.0098    4.5895    1.8773 C.ar      1 <0>         0.1650
     23 C17        -2.4011    5.0246    0.6173 C.ar      1 <0>        -0.1539
     24 C18        -3.6408    5.6078    0.4441 C.ar      1 <0>        -0.0839
     25 C19        -4.4884    5.7680    1.5251 C.ar      1 <0>        -0.1111
     26 C20        -4.0998    5.3412    2.7817 C.ar      1 <0>        -0.0887
     27 C21        -2.8635    4.7524    2.9610 C.ar      1 <0>        -0.1434
     28 C22        -5.8384    6.4096    1.3332 C.3       1 <0>        -0.1112
     29 H1          6.8799    0.2116    3.8216 H         1 <0>         0.0745
     30 H2          6.4123   -0.8565    2.4766 H         1 <0>         0.0691
     31 H3          7.1309    0.7367    2.1394 H         1 <0>         0.0639
     32 H4          5.1446    1.8422    3.1299 H         1 <0>         0.0629
     33 H5          4.4260    0.2490    3.4671 H         1 <0>         0.0662
     34 H6          4.5658    1.6084   -1.1167 H         1 <0>         0.0833
     35 H7          3.1270    2.0513   -2.0664 H         1 <0>         0.0820
     36 H8          2.7190    3.9859   -0.6204 H         1 <0>         0.0624
     37 H9          4.0663    3.5124    0.4421 H         1 <0>         0.0573
     38 H10         5.6256    3.7394   -1.5148 H         1 <0>         0.0704
     39 H11         3.1429    4.8967   -2.8616 H         1 <0>         0.0519
     40 H12         4.7907    4.9106   -3.5346 H         1 <0>         0.0505
     41 H13         3.9402    3.3655   -3.2948 H         1 <0>         0.0599
     42 H14         5.3026    5.6047    0.0867 H         1 <0>         0.0514
     43 H15         5.5862    6.2183   -1.5599 H         1 <0>         0.0519
     44 H16         3.9385    6.2044   -0.8869 H         1 <0>         0.0513
     45 H17         2.0903   -0.1832   -1.5799 H         1 <0>         0.0787
     46 H18         3.5582   -0.6215   -0.6737 H         1 <0>         0.0856
     47 H19         2.1490   -0.8998    1.3853 H         1 <0>         0.0551
     48 H20         0.7019   -0.5825    0.3985 H         1 <0>         0.0630
     49 H21         0.5288    1.1575   -1.9608 H         1 <0>         0.1969
     50 H22        -0.2637    4.1410    2.8769 H         1 <0>         0.4237
     51 H23        -1.7381    4.9033   -0.2266 H         1 <0>         0.1316
     52 H24        -3.9474    5.9423   -0.5359 H         1 <0>         0.1274
     53 H25        -4.7640    5.4681    3.6238 H         1 <0>         0.1271
     54 H26        -2.5609    4.4186    3.9426 H         1 <0>         0.1286
     55 H27        -5.7518    7.4872    1.4729 H         1 <0>         0.0680
     56 H28        -6.1997    6.2018    0.3260 H         1 <0>         0.0658
     57 H29        -6.5403    6.0041    2.0618 H         1 <0>         0.0651
     58 O4          0.9997   -3.3212    0.6867 O.co2     1 <0>        -0.7748
@<TRIPOS>BOND
     1    1    2 1
     2    1   29 1
     3    1   30 1
     4    1   31 1
     5    2    3 1
     6    2   32 1
     7    2   33 1
     8    3    4 1
     9    4    5 2
    10    4    6 1
    11    6    7 1
    12    6   12 1
    13    6   16 1
    14    7    8 1
    15    7   34 1
    16    7   35 1
    17    8    9 1
    18    8   36 1
    19    8   37 1
    20    9   10 1
    21    9   11 1
    22    9   38 1
    23   10   39 1
    24   10   40 1
    25   10   41 1
    26   11   42 1
    27   11   43 1
    28   11   44 1
    29   12   13 1
    30   12   45 1
    31   12   46 1
    32   13   14 1
    33   13   47 1
    34   13   48 1
    35   14   15 2
    36   14   58 1
    37   16   20 1
    38   16   17 2
    39   17   18 1
    40   17   49 1
    41   18   19 1
    42   19   20 2
    43   19   21 1
    44   21   22 1
    45   21   50 1
    46   22   27 ar
    47   22   23 ar
    48   23   24 ar
    49   23   51 1
    50   24   25 ar
    51   24   52 1
    52   25   26 ar
    53   25   28 1
    54   26   27 ar
    55   26   53 1
    56   27   54 1
    57   28   55 1
    58   28   56 1
    59   28   57 1
@<TRIPOS>MOLECULE
ZINC16462633
   73    74     0     0     0
SMALL
USER_CHARGES
N-[2-[[1-[(4-bromophenyl)methyl]pyrrol-2-yl]methyl-butyl-amino]-2-oxo-ethyl]-N-isobutyl-3-methyl-butanamide
@<TRIPOS>ATOM
      1 C1         -3.3429    2.8526    3.1069 C.3       1 <0>        -0.1500
      2 C2         -3.6874    1.4416    2.6259 C.3       1 <0>        -0.1173
      3 C3         -3.7166    1.4171    1.0964 C.3       1 <0>        -0.1479
      4 C4         -4.0611    0.0061    0.6154 C.3       1 <0>         0.1103
      5 N1         -4.0891   -0.0173   -0.8491 N.am      1 <0>        -0.6068
      6 C5         -2.8516   -0.2366   -1.6020 C.3       1 <0>         0.1769
      7 C6         -1.8685    0.8601   -1.2830 C.2       1 <0>        -0.0027
      8 C7         -0.8648    0.7856   -0.3855 C.2       1 <0>        -0.1784
      9 C8         -0.1888    2.0216   -0.4052 C.2       1 <0>        -0.2000
     10 C9         -0.8083    2.8061   -1.3104 C.2       1 <0>        -0.0002
     11 N2         -1.8420    2.0996   -1.8502 N.pl3     1 <0>        -0.4273
     12 C10        -2.7678    2.5896   -2.8744 C.3       1 <0>         0.1372
     13 C11        -3.4354    3.8496   -2.3867 C.ar      1 <0>        -0.1000
     14 C12        -4.5974    3.7721   -1.6418 C.ar      1 <0>        -0.0713
     15 C13        -5.2073    4.9272   -1.1902 C.ar      1 <0>        -0.0727
     16 C14        -4.6607    6.1614   -1.4927 C.ar      1 <0>        -0.0835
     17 C15        -3.5009    6.2387   -2.2425 C.ar      1 <0>        -0.0950
     18 C16        -2.8888    5.0828   -2.6892 C.ar      1 <0>        -0.1013
     19 Br1        -5.4984    7.7424   -0.8807 Br        1 <0>        -0.0505
     20 C17        -5.2533    0.1628   -1.5039 C.2       1 <0>         0.4989
     21 O1         -5.2607    0.2572   -2.7130 O.2       1 <0>        -0.5305
     22 C18        -6.5458    0.2469   -0.7336 C.3       1 <0>         0.0933
     23 N3         -7.6392    0.5812   -1.6494 N.am      1 <0>        -0.5942
     24 C19        -8.3523   -0.4840   -2.3586 C.3       1 <0>         0.1182
     25 C20        -9.6270   -0.8425   -1.5921 C.3       1 <0>        -0.1174
     26 C21       -10.4508   -1.8391   -2.4100 C.3       1 <0>        -0.1473
     27 C22        -9.2541   -1.4710   -0.2479 C.3       1 <0>        -0.1486
     28 C23        -7.9892    1.8688   -1.8395 C.2       1 <0>         0.5231
     29 O2         -7.3989    2.7507   -1.2524 O.2       1 <0>        -0.5290
     30 C24        -9.1140    2.2127   -2.7817 C.3       1 <0>        -0.1352
     31 C25        -9.3055    3.7303   -2.8148 C.3       1 <0>        -0.0781
     32 C26        -8.0607    4.3885   -3.4132 C.3       1 <0>        -0.1542
     33 C27       -10.5254    4.0718   -3.6728 C.3       1 <0>        -0.1488
     34 H1         -3.3221    2.8701    4.1965 H         1 <0>         0.0532
     35 H2         -2.3651    3.1397    2.7201 H         1 <0>         0.0544
     36 H3         -4.0962    3.5533    2.7466 H         1 <0>         0.0515
     37 H4         -4.6652    1.1545    3.0126 H         1 <0>         0.0581
     38 H5         -2.9342    0.7410    2.9862 H         1 <0>         0.0625
     39 H6         -2.7388    1.7042    0.7096 H         1 <0>         0.0892
     40 H7         -4.4698    2.1178    0.7361 H         1 <0>         0.0593
     41 H8         -5.0389   -0.2810    1.0021 H         1 <0>         0.0760
     42 H9         -3.3079   -0.6945    0.9757 H         1 <0>         0.0826
     43 H10        -3.0699   -0.2296   -2.6699 H         1 <0>         0.0969
     44 H11        -2.4237   -1.2001   -1.3250 H         1 <0>         0.0930
     45 H12        -0.6210   -0.0665    0.2316 H         1 <0>         0.1331
     46 H13         0.6682    2.2912    0.1942 H         1 <0>         0.1338
     47 H14        -0.5329    3.8190   -1.5642 H         1 <0>         0.1560
     48 H15        -2.2169    2.8016   -3.7907 H         1 <0>         0.0881
     49 H16        -3.5247    1.8308   -3.0729 H         1 <0>         0.1103
     50 H17        -5.0263    2.8086   -1.4092 H         1 <0>         0.1312
     51 H18        -6.1127    4.8664   -0.6045 H         1 <0>         0.1388
     52 H19        -3.0736    7.2020   -2.4786 H         1 <0>         0.1324
     53 H20        -1.9830    5.1430   -3.2744 H         1 <0>         0.1285
     54 H21        -6.7495   -0.7134   -0.2597 H         1 <0>         0.1078
     55 H22        -6.4634    1.0192    0.0312 H         1 <0>         0.1135
     56 H23        -8.6145   -0.1417   -3.3597 H         1 <0>         0.0813
     57 H24        -7.7126   -1.3636   -2.4313 H         1 <0>         0.0811
     58 H25       -10.2139    0.0599   -1.4209 H         1 <0>         0.0747
     59 H26        -9.8979   -2.7734   -2.5081 H         1 <0>         0.0576
     60 H27       -11.3979   -2.0287   -1.9049 H         1 <0>         0.0599
     61 H28       -10.6434   -1.4253   -3.3999 H         1 <0>         0.0579
     62 H29        -8.5819   -2.3128   -0.4144 H         1 <0>         0.0547
     63 H30        -8.7576   -0.7275    0.3756 H         1 <0>         0.0546
     64 H31       -10.1570   -1.8206    0.2527 H         1 <0>         0.0582
     65 H32        -8.8718    1.8551   -3.7825 H         1 <0>         0.0927
     66 H33       -10.0332    1.7379   -2.4387 H         1 <0>         0.0926
     67 H34        -9.4597    4.0993   -1.8008 H         1 <0>         0.0769
     68 H35        -8.1972    5.4697   -3.4368 H         1 <0>         0.0510
     69 H36        -7.1916    4.1452   -2.8020 H         1 <0>         0.0766
     70 H37        -7.9065    4.0195   -4.4272 H         1 <0>         0.0445
     71 H38       -11.4122    3.6029   -3.2464 H         1 <0>         0.0537
     72 H39       -10.6619    5.1530   -3.6964 H         1 <0>         0.0583
     73 H40       -10.3712    3.7028   -4.6868 H         1 <0>         0.0542
@<TRIPOS>BOND
     1    1    2 1
     2    1   34 1
     3    1   35 1
     4    1   36 1
     5    2    3 1
     6    2   37 1
     7    2   38 1
     8    3    4 1
     9    3   39 1
    10    3   40 1
    11    4    5 1
    12    4   41 1
    13    4   42 1
    14    5    6 1
    15    5   20 am
    16    6    7 1
    17    6   43 1
    18    6   44 1
    19    7   11 1
    20    7    8 2
    21    8    9 1
    22    8   45 1
    23    9   10 2
    24    9   46 1
    25   10   11 1
    26   10   47 1
    27   11   12 1
    28   12   13 1
    29   12   48 1
    30   12   49 1
    31   13   18 ar
    32   13   14 ar
    33   14   15 ar
    34   14   50 1
    35   15   16 ar
    36   15   51 1
    37   16   17 ar
    38   16   19 1
    39   17   18 ar
    40   17   52 1
    41   18   53 1
    42   20   21 2
    43   20   22 1
    44   22   23 1
    45   22   54 1
    46   22   55 1
    47   23   24 1
    48   23   28 am
    49   24   25 1
    50   24   56 1
    51   24   57 1
    52   25   26 1
    53   25   27 1
    54   25   58 1
    55   26   59 1
    56   26   60 1
    57   26   61 1
    58   27   62 1
    59   27   63 1
    60   27   64 1
    61   28   29 2
    62   28   30 1
    63   30   31 1
    64   30   65 1
    65   30   66 1
    66   31   32 1
    67   31   33 1
    68   31   67 1
    69   32   68 1
    70   32   69 1
    71   32   70 1
    72   33   71 1
    73   33   72 1
    74   33   73 1
@<TRIPOS>MOLECULE
ZINC33657620
   77    79     0     0     0
SMALL
USER_CHARGES
(3R)-N-[2-[benzyl-[(3-methyl-2-thienyl)methyl]amino]-2-oxo-ethyl]-3,5,5-trimethyl-N-[[(2S)-tetrahydrofuran-2-yl]methyl]hexanamide
@<TRIPOS>ATOM
      1 C1          1.5157    8.0524    0.2591 C.3       1 <0>        -0.1278
      2 C2          2.8092    7.2876    0.3742 C.2       1 <0>        -0.1079
      3 C3          3.8840    7.8260    1.0565 C.2       1 <0>        -0.1554
      4 C4          5.0347    7.1142    1.1370 C.2       1 <0>        -0.1646
      5 S1          4.6138    5.6290    0.2402 S.3       1 <0>         0.0465
      6 C5          2.9358    6.0614   -0.1894 C.2       1 <0>        -0.1765
      7 C6          1.9231    5.2690   -0.9752 C.3       1 <0>         0.1884
      8 N1          2.2632    5.3179   -2.3994 N.am      1 <0>        -0.6021
      9 C7          3.2336    4.3707   -2.9537 C.3       1 <0>         0.1539
     10 C8          2.5289    3.0941   -3.3337 C.ar      1 <0>        -0.1081
     11 C9          2.3316    2.1055   -2.3878 C.ar      1 <0>        -0.1089
     12 C10         1.6804    0.9367   -2.7351 C.ar      1 <0>        -0.1227
     13 C11         1.2367    0.7516   -4.0312 C.ar      1 <0>        -0.1144
     14 C12         1.4386    1.7379   -4.9784 C.ar      1 <0>        -0.1202
     15 C13         2.0847    2.9092   -4.6297 C.ar      1 <0>        -0.0916
     16 C14         1.6832    6.2343   -3.1996 C.2       1 <0>         0.5024
     17 O1          1.9647    6.2748   -4.3786 O.2       1 <0>        -0.5080
     18 C15         0.6849    7.2086   -2.6294 C.3       1 <0>         0.0618
     19 N2          0.2034    8.0932   -3.6933 N.am      1 <0>        -0.5972
     20 C16         0.9018    9.3502   -3.9730 C.3       1 <0>         0.1101
     21 C17         1.9909    9.1065   -5.0196 C.3       1 <0>         0.0493
     22 H1          2.5835    8.2369   -4.6992 H         1 <0>         0.0915
     23 C18         2.8229   10.3896   -5.2388 C.3       1 <0>        -0.1492
     24 C19         3.1220   10.3887   -6.7547 C.3       1 <0>        -0.1535
     25 C20         2.4354    9.1053   -7.2720 C.3       1 <0>         0.0490
     26 O2          1.3980    8.8269   -6.3065 O.3       1 <0>        -0.3570
     27 C21        -0.8822    7.7505   -4.4148 C.2       1 <0>         0.5329
     28 O3         -1.4605    6.7099   -4.1833 O.2       1 <0>        -0.5337
     29 C22        -1.3776    8.6604   -5.5093 C.3       1 <0>        -0.1430
     30 C23        -2.6131    8.0420   -6.1665 C.3       1 <0>        -0.0787
     31 H2         -3.3698    7.8290   -5.3971 H         1 <0>         0.0827
     32 C24        -2.2198    6.7409   -6.8689 C.3       1 <0>        -0.1709
     33 C25        -3.1894    9.0209   -7.1915 C.3       1 <0>        -0.1039
     34 C26        -4.6742    8.7200   -7.4052 C.3       1 <0>        -0.0660
     35 C27        -5.3975    8.7381   -6.0571 C.3       1 <0>        -0.1484
     36 C28        -5.2823    9.7811   -8.3245 C.3       1 <0>        -0.1431
     37 C29        -4.8276    7.3400   -8.0479 C.3       1 <0>        -0.1605
     38 H3          1.6128    9.0173    0.7782 H         1 <0>         0.0724
     39 H4          0.7031    7.4696    0.7175 H         1 <0>         0.0762
     40 H5          1.2871    8.2285   -0.8024 H         1 <0>         0.0837
     41 H6          3.8095    8.8011    1.5148 H         1 <0>         0.1350
     42 H7          5.9646    7.3769    1.6194 H         1 <0>         0.1864
     43 H8          1.9294    4.2238   -0.6324 H         1 <0>         0.0986
     44 H9          0.9223    5.6990   -0.8222 H         1 <0>         0.1044
     45 H10         3.7051    4.8087   -3.8458 H         1 <0>         0.0967
     46 H11         4.0052    4.1533   -2.2005 H         1 <0>         0.0832
     47 H12         2.6825    2.2481   -1.3764 H         1 <0>         0.1181
     48 H13         1.5223    0.1662   -1.9950 H         1 <0>         0.1219
     49 H14         0.7319   -0.1635   -4.3036 H         1 <0>         0.1213
     50 H15         1.0919    1.5933   -5.9910 H         1 <0>         0.1214
     51 H16         2.2429    3.6796   -5.3698 H         1 <0>         0.1242
     52 H17        -0.1636    6.6553   -2.2005 H         1 <0>         0.1142
     53 H18         1.1662    7.8088   -1.8432 H         1 <0>         0.1309
     54 H19         0.1844   10.0909   -4.3560 H         1 <0>         0.0925
     55 H20         1.3606    9.7286   -3.0476 H         1 <0>         0.0903
     56 H21         2.2323   11.2661   -4.9339 H         1 <0>         0.0758
     57 H22         3.7414   10.3386   -4.6356 H         1 <0>         0.0743
     58 H23         2.7012   11.2963   -7.2120 H         1 <0>         0.0747
     59 H24         4.2103   10.3688   -6.9137 H         1 <0>         0.0746
     60 H25         2.0208    9.2897   -8.2741 H         1 <0>         0.0900
     61 H26         3.1727    8.2907   -7.3245 H         1 <0>         0.0580
     62 H27        -1.6409    9.6390   -5.0814 H         1 <0>         0.0832
     63 H28        -0.5876    8.7906   -6.2635 H         1 <0>         0.1219
     64 H29        -3.1081    6.2963   -7.3414 H         1 <0>         0.0725
     65 H30        -1.8055    6.0372   -6.1320 H         1 <0>         0.0686
     66 H31        -1.4631    6.9539   -7.6383 H         1 <0>         0.0457
     67 H32        -3.0734   10.0501   -6.8211 H         1 <0>         0.0596
     68 H33        -2.6522    8.9118   -8.1452 H         1 <0>         0.0633
     69 H34        -6.4650    8.5218   -6.2108 H         1 <0>         0.0523
     70 H35        -5.2873    9.7303   -5.5952 H         1 <0>         0.0527
     71 H36        -4.9602    7.9753   -5.3961 H         1 <0>         0.0633
     72 H37        -6.3498    9.5648   -8.4782 H         1 <0>         0.0534
     73 H38        -4.7623    9.7681   -9.2937 H         1 <0>         0.0535
     74 H39        -5.1720   10.7733   -7.8625 H         1 <0>         0.0531
     75 H40        -5.8951    7.1237   -8.2015 H         1 <0>         0.0497
     76 H41        -4.3903    6.5771   -7.3870 H         1 <0>         0.0787
     77 H42        -4.3077    7.3271   -9.0172 H         1 <0>         0.0536
@<TRIPOS>BOND
     1    1    2 1
     2    1   38 1
     3    1   39 1
     4    1   40 1
     5    2    6 2
     6    2    3 1
     7    3    4 2
     8    3   41 1
     9    4    5 1
    10    4   42 1
    11    5    6 1
    12    6    7 1
    13    7    8 1
    14    7   43 1
    15    7   44 1
    16    8    9 1
    17    8   16 am
    18    9   10 1
    19    9   45 1
    20    9   46 1
    21   10   15 ar
    22   10   11 ar
    23   11   12 ar
    24   11   47 1
    25   12   13 ar
    26   12   48 1
    27   13   14 ar
    28   13   49 1
    29   14   15 ar
    30   14   50 1
    31   15   51 1
    32   16   17 2
    33   16   18 1
    34   18   19 1
    35   18   52 1
    36   18   53 1
    37   19   20 1
    38   19   27 am
    39   20   21 1
    40   20   54 1
    41   20   55 1
    42   21   22 1
    43   21   26 1
    44   21   23 1
    45   23   24 1
    46   23   56 1
    47   23   57 1
    48   24   25 1
    49   24   58 1
    50   24   59 1
    51   25   26 1
    52   25   60 1
    53   25   61 1
    54   27   28 2
    55   27   29 1
    56   29   30 1
    57   29   62 1
    58   29   63 1
    59   30   31 1
    60   30   32 1
    61   30   33 1
    62   32   64 1
    63   32   65 1
    64   32   66 1
    65   33   34 1
    66   33   67 1
    67   33   68 1
    68   34   35 1
    69   34   36 1
    70   34   37 1
    71   35   69 1
    72   35   70 1
    73   35   71 1
    74   36   72 1
    75   36   73 1
    76   36   74 1
    77   37   75 1
    78   37   76 1
    79   37   77 1
@<TRIPOS>MOLECULE
ZINC35776408
   69    70     0     0     0
SMALL
USER_CHARGES

@<TRIPOS>ATOM
      1 C1         -0.7580   -5.0755    3.3513 C.3       1 <0>        -0.1537
      2 C2         -0.3510   -4.2224    2.1481 C.3       1 <0>        -0.1250
      3 C3          0.4488   -5.0779    1.1636 C.3       1 <0>        -0.1215
      4 C4          0.8557   -4.2248   -0.0396 C.3       1 <0>        -0.1036
      5 C5          1.7503   -5.0476   -0.9689 C.3       1 <0>        -0.1153
      6 H1          1.2406   -5.9725   -1.2389 H         1 <0>         0.0930
      7 C6          3.0617   -5.3782   -0.2536 C.3       1 <0>        -0.1251
      8 C7          3.7187   -4.0841    0.2307 C.3       1 <0>        -0.1567
      9 C8          2.0444   -4.2537   -2.2157 C.2       1 <0>         0.5270
     10 O1          1.6621   -3.1065   -2.3083 O.2       1 <0>        -0.5220
     11 N1          2.7324   -4.8186   -3.2276 N.am      1 <0>        -0.6040
     12 C9          3.1023   -6.2346   -3.1613 C.3       1 <0>         0.1292
     13 C10         2.0927   -7.0538   -3.9232 C.ar      1 <0>        -0.0852
     14 C11         0.9424   -7.4917   -3.2932 C.ar      1 <0>        -0.0908
     15 C12         0.0156   -8.2432   -3.9894 C.ar      1 <0>        -0.0853
     16 C13         0.2395   -8.5581   -5.3218 C.ar      1 <0>         0.0625
     17 C14         1.3942   -8.1171   -5.9518 C.ar      1 <0>        -0.1187
     18 C15         2.3155   -7.3615   -5.2527 C.ar      1 <0>        -0.0873
     19 O2         -0.6705   -9.2976   -6.0087 O.3       1 <0>        -0.6544
     20 S1         -1.7404   -8.4702   -6.7068 S.o2      1 <0>         2.6755
     21 O3         -2.7114   -9.3876   -7.1913 O.2       1 <0>        -0.9195
     22 O4         -2.0709   -7.4062   -5.8248 O.2       1 <0>        -0.9411
     23 C16        -0.9904   -7.7365   -8.1223 C.ar      1 <0>        -0.7038
     24 C17        -0.3833   -6.4986   -8.0195 C.ar      1 <0>         0.0152
     25 C18         0.2050   -5.9230   -9.1298 C.ar      1 <0>        -0.1358
     26 C19         0.1868   -6.5854  -10.3433 C.ar      1 <0>        -0.0116
     27 C20        -0.4194   -7.8232  -10.4459 C.ar      1 <0>        -0.2030
     28 C21        -1.0041   -8.4009   -9.3342 C.ar      1 <0>         0.0359
     29 C22        -0.4397   -8.5449  -11.7687 C.3       1 <0>         0.5104
     30 F1          0.2117   -7.7689  -12.7334 F         1 <0>        -0.1735
     31 F2          0.2152   -9.7744  -11.6393 F         1 <0>        -0.1722
     32 F3         -1.7648   -8.7615  -12.1615 F         1 <0>        -0.1706
     33 C23         3.1102   -4.0167   -4.3940 C.3       1 <0>         0.1499
     34 H2          3.6224   -4.6490   -5.1192 H         1 <0>         0.0827
     35 C24         1.8535   -3.4225   -5.0331 C.3       1 <0>        -0.1716
     36 C25         4.0426   -2.8858   -3.9550 C.3       1 <0>        -0.1409
     37 C26         5.3443   -3.4795   -3.4128 C.3       1 <0>        -0.1501
     38 H3         -1.3717   -5.9106    3.0136 H         1 <0>         0.0533
     39 H4          0.1357   -5.4576    3.8447 H         1 <0>         0.0530
     40 H5         -1.3278   -4.4660    4.0527 H         1 <0>         0.0535
     41 H6         -1.2447   -3.8403    1.6548 H         1 <0>         0.0615
     42 H7          0.2628   -3.3873    2.4858 H         1 <0>         0.0611
     43 H8          1.3425   -5.4600    1.6570 H         1 <0>         0.0650
     44 H9         -0.1650   -5.9130    0.8259 H         1 <0>         0.0609
     45 H10        -0.0368   -3.9094   -0.5798 H         1 <0>         0.0691
     46 H11         1.4009   -3.3464    0.3056 H         1 <0>         0.0758
     47 H12         2.8570   -6.0235    0.6007 H         1 <0>         0.0789
     48 H13         3.7327   -5.8903   -0.9432 H         1 <0>         0.0729
     49 H14         3.0918   -3.6215    0.9931 H         1 <0>         0.0626
     50 H15         4.6978   -4.3098    0.6533 H         1 <0>         0.0565
     51 H16         3.8346   -3.3991   -0.6091 H         1 <0>         0.0560
     52 H17         4.0896   -6.3732   -3.6019 H         1 <0>         0.0933
     53 H18         3.1206   -6.5570   -2.1202 H         1 <0>         0.1100
     54 H19         0.7686   -7.2463   -2.2560 H         1 <0>         0.1399
     55 H20        -0.8824   -8.5856   -3.4966 H         1 <0>         0.1442
     56 H21         1.5708   -8.3609   -6.9889 H         1 <0>         0.1404
     57 H22         3.2125   -7.0143   -5.7438 H         1 <0>         0.1398
     58 H23        -0.3690   -5.9813   -7.0715 H         1 <0>         0.1507
     59 H24         0.6787   -4.9558   -9.0496 H         1 <0>         0.1500
     60 H25         0.6459   -6.1353  -11.2111 H         1 <0>         0.1510
     61 H26        -1.4744   -9.3699   -9.4135 H         1 <0>         0.1543
     62 H27         1.4012   -2.7059   -4.3474 H         1 <0>         0.0834
     63 H28         2.1218   -2.9177   -5.9612 H         1 <0>         0.0604
     64 H29         1.1421   -4.2204   -5.2460 H         1 <0>         0.0535
     65 H30         4.2634   -2.2449   -4.8086 H         1 <0>         0.0704
     66 H31         3.5586   -2.2981   -3.1749 H         1 <0>         0.0810
     67 H32         5.1235   -4.1204   -2.5592 H         1 <0>         0.0540
     68 H33         5.8282   -4.0672   -4.1928 H         1 <0>         0.0508
     69 H34         6.0085   -2.6738   -3.1000 H         1 <0>         0.0537
@<TRIPOS>BOND
     1    1    2 1
     2    1   38 1
     3    1   39 1
     4    1   40 1
     5    2    3 1
     6    2   41 1
     7    2   42 1
     8    3    4 1
     9    3   43 1
    10    3   44 1
    11    4    5 1
    12    4   45 1
    13    4   46 1
    14    5    6 1
    15    5    7 1
    16    5    9 1
    17    7    8 1
    18    7   47 1
    19    7   48 1
    20    8   49 1
    21    8   50 1
    22    8   51 1
    23    9   10 2
    24    9   11 am
    25   11   12 1
    26   11   33 1
    27   12   13 1
    28   12   52 1
    29   12   53 1
    30   13   18 ar
    31   13   14 ar
    32   14   15 ar
    33   14   54 1
    34   15   16 ar
    35   15   55 1
    36   16   17 ar
    37   16   19 1
    38   17   18 ar
    39   17   56 1
    40   18   57 1
    41   19   20 1
    42   20   21 2
    43   20   22 2
    44   20   23 1
    45   23   28 ar
    46   23   24 ar
    47   24   25 ar
    48   24   58 1
    49   25   26 ar
    50   25   59 1
    51   26   27 ar
    52   26   60 1
    53   27   28 ar
    54   27   29 1
    55   28   61 1
    56   29   30 1
    57   29   31 1
    58   29   32 1
    59   33   34 1
    60   33   35 1
    61   33   36 1
    62   35   62 1
    63   35   63 1
    64   35   64 1
    65   36   37 1
    66   36   65 1
    67   36   66 1
    68   37   67 1
    69   37   68 1
    70   37   69 1
@<TRIPOS>MOLECULE
ZINC13987481
   54    55     0     0     0
SMALL
USER_CHARGES

@<TRIPOS>ATOM
      1 C1         -0.0166    1.3736    0.0096 C.ar      1 <0>        -0.0595
      2 C2          1.1873    2.0865    0.0019 C.ar      1 <0>        -0.0956
      3 C3          2.4031    1.3941   -0.0134 C.ar      1 <0>        -0.0671
      4 C4          2.4077    0.0163   -0.0208 C.ar      1 <0>        -0.1560
      5 C5          1.2107   -0.6842   -0.0136 C.ar      1 <0>         0.1163
      6 C6          0.0021   -0.0041    0.0020 C.ar      1 <0>        -0.1568
      7 F1          1.2221   -2.0351   -0.0219 F         1 <0>        -0.1341
      8 C7          1.1749    3.5571    0.0095 C.2       1 <0>        -0.0002
      9 C8          2.3383    4.2420    0.0020 C.2       1 <0>        -0.1955
     10 C9          2.3259    5.7033    0.0095 C.2       1 <0>         0.4977
     11 O1          1.2675    6.3026    0.0224 O.2       1 <0>        -0.5107
     12 O2          3.4886    6.3878    0.0021 O.3       1 <0>        -0.3487
     13 C10         3.4018    7.8142    0.0101 C.3       1 <0>         0.0650
     14 C11         4.8106    8.4109   -0.0001 C.3       1 <0>        -0.1196
     15 C12         4.7176    9.9381    0.0085 C.3       1 <0>        -0.1160
     16 C13         6.1264   10.5348   -0.0017 C.3       1 <0>        -0.1160
     17 C14         6.0334   12.0620    0.0069 C.3       1 <0>        -0.1196
     18 C15         7.4422   12.6587   -0.0033 C.3       1 <0>         0.0650
     19 O3          7.3554   14.0851    0.0047 O.3       1 <0>        -0.3486
     20 C16         8.5181   14.7695   -0.0027 C.2       1 <0>         0.4977
     21 O4          9.5765   14.1703   -0.0156 O.2       1 <0>        -0.5106
     22 C17         8.5057   16.2309    0.0048 C.2       1 <0>        -0.1955
     23 C18         9.6691   16.9158   -0.0026 C.2       1 <0>        -0.0002
     24 C19         9.6567   18.3864    0.0049 C.ar      1 <0>        -0.0955
     25 C20         8.4410   19.0787    0.0256 C.ar      1 <0>        -0.0671
     26 C21         8.4364   20.4565    0.0330 C.ar      1 <0>        -0.1560
     27 C22         9.6333   21.1571    0.0196 C.ar      1 <0>         0.1163
     28 C23        10.8419   20.4770   -0.0010 C.ar      1 <0>        -0.1568
     29 C24        10.8606   19.0993   -0.0028 C.ar      1 <0>        -0.0595
     30 F2          9.6219   22.5080    0.0261 F         1 <0>        -0.1340
     31 H1         -0.9584    1.9020    0.0259 H         1 <0>         0.1415
     32 H2          3.3359    1.9384   -0.0197 H         1 <0>         0.1413
     33 H3          3.3454   -0.5193   -0.0327 H         1 <0>         0.1421
     34 H4         -0.9265   -0.5556    0.0079 H         1 <0>         0.1423
     35 H5          0.2351    4.0891    0.0209 H         1 <0>         0.1418
     36 H6          3.2781    3.7099   -0.0094 H         1 <0>         0.1434
     37 H7          2.8585    8.1501   -0.8732 H         1 <0>         0.0690
     38 H8          2.8752    8.1411    0.9067 H         1 <0>         0.0690
     39 H9          5.3538    8.0750    0.8832 H         1 <0>         0.0759
     40 H10         5.3372    8.0840   -0.8967 H         1 <0>         0.0760
     41 H11         4.1744   10.2740   -0.8748 H         1 <0>         0.0691
     42 H12         4.1910   10.2650    0.9051 H         1 <0>         0.0691
     43 H13         6.6697   10.1989    0.8816 H         1 <0>         0.0691
     44 H14         6.6530   10.2079   -0.8983 H         1 <0>         0.0691
     45 H15         5.4902   12.3979   -0.8764 H         1 <0>         0.0759
     46 H16         5.5068   12.3889    0.9035 H         1 <0>         0.0760
     47 H17         7.9855   12.3228    0.8800 H         1 <0>         0.0690
     48 H18         7.9688   12.3318   -0.8999 H         1 <0>         0.0690
     49 H19         7.5660   16.7629    0.0163 H         1 <0>         0.1434
     50 H20        10.6089   16.3837   -0.0141 H         1 <0>         0.1418
     51 H21         7.5082   18.5344    0.0354 H         1 <0>         0.1413
     52 H22         7.4987   20.9921    0.0490 H         1 <0>         0.1421
     53 H23        11.7704   21.0285   -0.0114 H         1 <0>         0.1423
     54 H24        11.8024   18.5709   -0.0143 H         1 <0>         0.1415
@<TRIPOS>BOND
     1    1    6 ar
     2    1    2 ar
     3    1   31 1
     4    2    3 ar
     5    2    8 1
     6    3    4 ar
     7    3   32 1
     8    4    5 ar
     9    4   33 1
    10    5    6 ar
    11    5    7 1
    12    6   34 1
    13    8    9 2
    14    8   35 1
    15    9   10 1
    16    9   36 1
    17   10   11 2
    18   10   12 1
    19   12   13 1
    20   13   14 1
    21   13   37 1
    22   13   38 1
    23   14   15 1
    24   14   39 1
    25   14   40 1
    26   15   16 1
    27   15   41 1
    28   15   42 1
    29   16   17 1
    30   16   43 1
    31   16   44 1
    32   17   18 1
    33   17   45 1
    34   17   46 1
    35   18   19 1
    36   18   47 1
    37   18   48 1
    38   19   20 1
    39   20   21 2
    40   20   22 1
    41   22   23 2
    42   22   49 1
    43   23   24 1
    44   23   50 1
    45   24   29 ar
    46   24   25 ar
    47   25   26 ar
    48   25   51 1
    49   26   27 ar
    50   26   52 1
    51   27   28 ar
    52   27   30 1
    53   28   29 ar
    54   28   53 1
    55   29   54 1
@<TRIPOS>MOLECULE
ZINC05371779
   86    88     0     0     0
SMALL
USER_CHARGES
[dimethyl-(4,8,12-trimethyltridecyl)BLAHyl] acetate
@<TRIPOS>ATOM
      1 C1          2.4885    1.6126   17.1958 C.3       1 <0>        -0.1252
      2 C2          2.3068    0.6863   16.0211 C.ar      1 <0>        -0.0332
      3 C3          1.7576    1.1850   14.8366 C.ar      1 <0>        -0.1680
      4 C4          1.5773    0.3696   13.7593 C.ar      1 <0>         0.1705
      5 C5          1.9566   -0.9902   13.8422 C.ar      1 <0>        -0.0647
      6 C6          1.7869   -1.8548   12.7482 C.ar      1 <0>        -0.0776
      7 C7          2.1607   -3.1594   12.8575 C.ar      1 <0>        -0.1277
      8 C8          2.7098   -3.6518   14.0398 C.ar      1 <0>        -0.0964
      9 C9          2.8883   -2.8419   15.1197 C.ar      1 <0>        -0.1151
     10 C10         2.5140   -1.4906   15.0425 C.ar      1 <0>        -0.0182
     11 C11         2.6811   -0.6196   16.1379 C.ar      1 <0>         0.0479
     12 O1          3.2113   -1.0782   17.3024 O.3       1 <0>        -0.2823
     13 C12         4.5450   -1.0048   17.4354 C.2       1 <0>         0.4476
     14 O2          5.2191   -0.5450   16.5391 O.2       1 <0>        -0.4947
     15 C13         5.2043   -1.4942   18.6991 C.3       1 <0>        -0.1451
     16 O3          1.0387    0.8172   12.5955 O.3       1 <0>        -0.2963
     17 C14         0.9997    2.2269   12.3712 C.3       1 <0>         0.1178
     18 C15         0.4183    2.8949   13.6243 C.3       1 <0>        -0.1490
     19 C16         1.3804    2.6456   14.7876 C.3       1 <0>        -0.0760
     20 C17         2.4153    2.7486   12.1165 C.3       1 <0>        -0.1787
     21 C18         0.1116    2.5331   11.1636 C.3       1 <0>        -0.1036
     22 C19         0.6787    1.8382    9.9241 C.3       1 <0>        -0.1211
     23 C20        -0.2094    2.1445    8.7165 C.3       1 <0>        -0.1148
     24 C21         0.3577    1.4496    7.4770 C.3       1 <0>        -0.0911
     25 H1          1.3975    1.7458    7.3381 H         1 <0>         0.0677
     26 C22         0.2800   -0.0672    7.6623 C.3       1 <0>        -0.1502
     27 C23        -0.4568    1.8555    6.2471 C.3       1 <0>        -0.1149
     28 C24         0.1844    1.2610    4.9917 C.3       1 <0>        -0.1220
     29 C25        -0.6301    1.6669    3.7618 C.3       1 <0>        -0.1150
     30 C26         0.0111    1.0724    2.5063 C.3       1 <0>        -0.0920
     31 H2          1.0569    1.3753    2.4543 H         1 <0>         0.0676
     32 C27        -0.0755   -0.4541    2.5634 C.3       1 <0>        -0.1501
     33 C28        -0.7288    1.5792    1.2668 C.3       1 <0>        -0.1152
     34 C29        -0.0127    1.0858    0.0080 C.3       1 <0>        -0.1225
     35 C30        -0.7527    1.5927   -1.2315 C.3       1 <0>        -0.1155
     36 C31        -0.0366    1.0992   -2.4903 C.3       1 <0>        -0.0984
     37 C32        -0.8440    1.4999   -3.7266 C.3       1 <0>        -0.1490
     38 C33         1.3560    1.7287   -2.5647 C.3       1 <0>        -0.1497
     39 H3          3.4739    2.0759   17.1442 H         1 <0>         0.0749
     40 H4          1.7214    2.3865   17.1704 H         1 <0>         0.0784
     41 H5          2.4019    1.0454   18.1225 H         1 <0>         0.0736
     42 H6          1.3627   -1.4868   11.8257 H         1 <0>         0.1351
     43 H7          2.0293   -3.8227   12.0154 H         1 <0>         0.1269
     44 H8          2.9982   -4.6908   14.1004 H         1 <0>         0.1266
     45 H9          3.3155   -3.2362   16.0299 H         1 <0>         0.1255
     46 H10         4.4438   -1.8697   19.3838 H         1 <0>         0.0939
     47 H11         5.9031   -2.2951   18.4577 H         1 <0>         0.1080
     48 H12         5.7428   -0.6717   19.1700 H         1 <0>         0.1080
     49 H13         0.3150    3.9667   13.4555 H         1 <0>         0.0868
     50 H14        -0.5557    2.4624   13.8534 H         1 <0>         0.0788
     51 H15         0.8974    2.9265   15.7236 H         1 <0>         0.0860
     52 H16         2.2786    3.2472   14.6487 H         1 <0>         0.0808
     53 H17         2.3821    3.8263   11.9568 H         1 <0>         0.0740
     54 H18         3.0443    2.5283   12.9790 H         1 <0>         0.0647
     55 H19         2.8280    2.2628   11.2323 H         1 <0>         0.0710
     56 H20         0.0847    3.6099   10.9961 H         1 <0>         0.0830
     57 H21        -0.8983    2.1697   11.3538 H         1 <0>         0.0734
     58 H22         0.7056    0.7615   10.0916 H         1 <0>         0.0728
     59 H23         1.6886    2.2017    9.7339 H         1 <0>         0.0642
     60 H24        -0.2363    3.2212    8.5490 H         1 <0>         0.0601
     61 H25        -1.2193    1.7810    8.9067 H         1 <0>         0.0615
     62 H26         0.8604   -0.3564    8.5384 H         1 <0>         0.0559
     63 H27        -0.7597   -0.3635    7.8011 H         1 <0>         0.0528
     64 H28         0.6841   -0.5623    6.7792 H         1 <0>         0.0544
     65 H29        -0.4751    2.9423    6.1659 H         1 <0>         0.0594
     66 H30        -1.4758    1.4814    6.3466 H         1 <0>         0.0603
     67 H31         0.2027    0.1742    5.0729 H         1 <0>         0.0666
     68 H32         1.2034    1.6350    4.8922 H         1 <0>         0.0587
     69 H33        -0.6484    2.7537    3.6806 H         1 <0>         0.0594
     70 H34        -1.6491    1.2929    3.8612 H         1 <0>         0.0602
     71 H35         0.3814   -0.8776    1.6690 H         1 <0>         0.0548
     72 H36         0.4517   -0.8152    3.4465 H         1 <0>         0.0549
     73 H37        -1.1213   -0.7569    2.6154 H         1 <0>         0.0527
     74 H38        -0.7436    2.6691    1.2728 H         1 <0>         0.0597
     75 H39        -1.7514    1.2020    1.2746 H         1 <0>         0.0601
     76 H40         0.0021   -0.0041    0.0020 H         1 <0>         0.0629
     77 H41         1.0099    1.4631    0.0003 H         1 <0>         0.0627
     78 H42        -1.7753    1.2154   -1.2238 H         1 <0>         0.0600
     79 H43        -0.7675    2.6825   -1.2255 H         1 <0>         0.0604
     80 H44         0.0568    0.0139   -2.4534 H         1 <0>         0.0678
     81 H45        -0.9374    2.5853   -3.7635 H         1 <0>         0.0536
     82 H46        -0.3338    1.1484   -4.6234 H         1 <0>         0.0536
     83 H47        -1.8361    1.0515   -3.6736 H         1 <0>         0.0533
     84 H48         1.2626    2.8140   -2.6016 H         1 <0>         0.0533
     85 H49         1.9312    1.4432   -1.6839 H         1 <0>         0.0563
     86 H50         1.8662    1.3771   -3.4615 H         1 <0>         0.0522
@<TRIPOS>BOND
     1    1    2 1
     2    1   39 1
     3    1   40 1
     4    1   41 1
     5    2   11 ar
     6    2    3 ar
     7    3   19 1
     8    3    4 ar
     9    4    5 ar
    10    4   16 1
    11    5   10 ar
    12    5    6 ar
    13    6    7 ar
    14    6   42 1
    15    7    8 ar
    16    7   43 1
    17    8    9 ar
    18    8   44 1
    19    9   10 ar
    20    9   45 1
    21   10   11 ar
    22   11   12 1
    23   12   13 1
    24   13   14 2
    25   13   15 1
    26   15   46 1
    27   15   47 1
    28   15   48 1
    29   16   17 1
    30   17   18 1
    31   17   20 1
    32   17   21 1
    33   18   19 1
    34   18   49 1
    35   18   50 1
    36   19   51 1
    37   19   52 1
    38   20   53 1
    39   20   54 1
    40   20   55 1
    41   21   22 1
    42   21   56 1
    43   21   57 1
    44   22   23 1
    45   22   58 1
    46   22   59 1
    47   23   24 1
    48   23   60 1
    49   23   61 1
    50   24   25 1
    51   24   26 1
    52   24   27 1
    53   26   62 1
    54   26   63 1
    55   26   64 1
    56   27   28 1
    57   27   65 1
    58   27   66 1
    59   28   29 1
    60   28   67 1
    61   28   68 1
    62   29   30 1
    63   29   69 1
    64   29   70 1
    65   30   31 1
    66   30   32 1
    67   30   33 1
    68   32   71 1
    69   32   72 1
    70   32   73 1
    71   33   34 1
    72   33   74 1
    73   33   75 1
    74   34   35 1
    75   34   76 1
    76   34   77 1
    77   35   36 1
    78   35   78 1
    79   35   79 1
    80   36   37 1
    81   36   38 1
    82   36   80 1
    83   37   81 1
    84   37   82 1
    85   37   83 1
    86   38   84 1
    87   38   85 1
    88   38   86 1
@<TRIPOS>MOLECULE
ZINC33555698
   70    71     0     0     0
SMALL
USER_CHARGES
[4-[[2-methoxyethyl-[(3S)-3,5,5-trimethylhexanoyl]amino]methyl]phenyl] 3-(trifluoromethyl)benzenesulfonate
@<TRIPOS>ATOM
      1 C1         -6.0535    4.0482   -9.0751 C.3       1 <0>        -0.1962
      2 C2         -4.7697    4.8691   -8.9373 C.3       1 <0>        -0.0755
      3 H1         -3.9968    4.2612   -8.4443 H         1 <0>         0.0820
      4 C3         -5.0499    6.1168   -8.0973 C.3       1 <0>        -0.1441
      5 C4         -5.4131    5.7062   -6.6936 C.2       1 <0>         0.5296
      6 O1         -5.4447    4.5313   -6.3944 O.2       1 <0>        -0.5337
      7 N1         -5.7027    6.6446   -5.7706 N.am      1 <0>        -0.6099
      8 C5         -5.6645    8.0639   -6.1319 C.3       1 <0>         0.1072
      9 C6         -4.2600    8.6164   -5.8807 C.3       1 <0>         0.0294
     10 O2         -3.3324    7.9773   -6.7599 O.3       1 <0>        -0.3832
     11 C7         -1.9837    8.4239   -6.6062 C.3       1 <0>         0.0283
     12 C8         -6.0558    6.2455   -4.4059 C.3       1 <0>         0.1458
     13 C9         -4.8066    6.1663   -3.5667 C.ar      1 <0>        -0.0800
     14 C10        -4.3651    7.2817   -2.8792 C.ar      1 <0>        -0.0933
     15 C11        -3.2204    7.2117   -2.1092 C.ar      1 <0>        -0.0928
     16 C12        -2.5135    6.0208   -2.0260 C.ar      1 <0>         0.0590
     17 C13        -2.9554    4.9046   -2.7213 C.ar      1 <0>        -0.1208
     18 C14        -4.1042    4.9781   -3.4850 C.ar      1 <0>        -0.0741
     19 O3         -1.3871    5.9493   -1.2691 O.3       1 <0>        -0.6545
     20 S1         -1.6369    5.5408    0.1756 S.o2      1 <0>         2.6769
     21 O4         -2.8362    6.1874    0.5790 O.2       1 <0>        -0.9433
     22 O5         -0.4073    5.7168    0.8659 O.2       1 <0>        -0.9214
     23 C15        -1.9723    3.8110    0.1773 C.ar      1 <0>        -0.7042
     24 C16        -0.9362    2.9061    0.3159 C.ar      1 <0>         0.0162
     25 C17        -1.1992    1.5492    0.3168 C.ar      1 <0>        -0.1365
     26 C18        -2.4984    1.0968    0.1791 C.ar      1 <0>        -0.0122
     27 C19        -3.5335    2.0013    0.0352 C.ar      1 <0>        -0.2031
     28 C20        -3.2710    3.3588    0.0397 C.ar      1 <0>         0.0346
     29 C21        -4.9489    1.5081   -0.1212 C.3       1 <0>         0.5101
     30 F1         -4.9614    0.1095   -0.0901 F         1 <0>        -0.1737
     31 F2         -5.7341    2.0048    0.9247 F         1 <0>        -0.1716
     32 F3         -5.4651    1.9520   -1.3433 F         1 <0>        -0.1705
     33 C22        -4.2808    5.2878  -10.3253 C.3       1 <0>        -0.1043
     34 C23        -3.6063    4.0970  -11.0092 C.3       1 <0>        -0.0649
     35 C24        -4.6107    2.9508  -11.1449 C.3       1 <0>        -0.1722
     36 C25        -3.1191    4.5152  -12.3980 C.3       1 <0>        -0.1436
     37 C26        -2.4146    3.6340  -10.1687 C.3       1 <0>        -0.1466
     38 H2         -5.8520    3.1512   -9.6790 H         1 <0>         0.0948
     39 H3         -6.8263    4.6562   -9.5681 H         1 <0>         0.0429
     40 H4         -6.4050    3.7471   -8.0772 H         1 <0>         0.0688
     41 H5         -4.1519    6.7516   -8.0729 H         1 <0>         0.1196
     42 H6         -5.8842    6.6788   -8.5424 H         1 <0>         0.0844
     43 H7         -5.9187    8.1783   -7.1960 H         1 <0>         0.0930
     44 H8         -6.3914    8.6178   -5.5197 H         1 <0>         0.0981
     45 H9         -4.2539    9.7006   -6.0664 H         1 <0>         0.0610
     46 H10        -3.9704    8.4215   -4.8376 H         1 <0>         0.0608
     47 H11        -1.3365    7.8865   -7.3149 H         1 <0>         0.0871
     48 H12        -1.6465    8.2249   -5.5782 H         1 <0>         0.0411
     49 H13        -1.9300    9.5041   -6.8071 H         1 <0>         0.0430
     50 H14        -6.7421    6.9880   -3.9727 H         1 <0>         0.0925
     51 H15        -6.5464    5.2612   -4.4270 H         1 <0>         0.1015
     52 H16        -4.9159    8.2084   -2.9440 H         1 <0>         0.1392
     53 H17        -2.8761    8.0831   -1.5721 H         1 <0>         0.1418
     54 H18        -2.4044    3.9776   -2.6617 H         1 <0>         0.1377
     55 H19        -4.4515    4.1080   -4.0224 H         1 <0>         0.1464
     56 H20         0.0787    3.2595    0.4231 H         1 <0>         0.1540
     57 H21        -0.3899    0.8423    0.4247 H         1 <0>         0.1508
     58 H22        -2.7039    0.0366    0.1794 H         1 <0>         0.1509
     59 H23        -4.0803    4.0656   -0.0690 H         1 <0>         0.1518
     60 H24        -5.1367    5.6215  -10.9303 H         1 <0>         0.0612
     61 H25        -3.5583    6.1114  -10.2266 H         1 <0>         0.0613
     62 H26        -4.1257    2.0946  -11.6366 H         1 <0>         0.0490
     63 H27        -5.4675    3.2837  -11.7492 H         1 <0>         0.0545
     64 H28        -4.9610    2.6501  -10.1465 H         1 <0>         0.0938
     65 H29        -2.6342    3.6590  -12.8896 H         1 <0>         0.0535
     66 H30        -2.3970    5.3393  -12.3005 H         1 <0>         0.0532
     67 H31        -3.9759    4.8480  -13.0023 H         1 <0>         0.0534
     68 H32        -1.9297    2.7778  -10.6605 H         1 <0>         0.0521
     69 H33        -2.7649    3.3333   -9.1703 H         1 <0>         0.0609
     70 H34        -1.6925    4.4581  -10.0711 H         1 <0>         0.0527
@<TRIPOS>BOND
     1    1    2 1
     2    1   38 1
     3    1   39 1
     4    1   40 1
     5    2    3 1
     6    2    4 1
     7    2   33 1
     8    4    5 1
     9    4   41 1
    10    4   42 1
    11    5    6 2
    12    5    7 am
    13    7    8 1
    14    7   12 1
    15    8    9 1
    16    8   43 1
    17    8   44 1
    18    9   10 1
    19    9   45 1
    20    9   46 1
    21   10   11 1
    22   11   47 1
    23   11   48 1
    24   11   49 1
    25   12   13 1
    26   12   50 1
    27   12   51 1
    28   13   18 ar
    29   13   14 ar
    30   14   15 ar
    31   14   52 1
    32   15   16 ar
    33   15   53 1
    34   16   17 ar
    35   16   19 1
    36   17   18 ar
    37   17   54 1
    38   18   55 1
    39   19   20 1
    40   20   21 2
    41   20   22 2
    42   20   23 1
    43   23   28 ar
    44   23   24 ar
    45   24   25 ar
    46   24   56 1
    47   25   26 ar
    48   25   57 1
    49   26   27 ar
    50   26   58 1
    51   27   28 ar
    52   27   29 1
    53   28   59 1
    54   29   30 1
    55   29   31 1
    56   29   32 1
    57   33   34 1
    58   33   60 1
    59   33   61 1
    60   34   35 1
    61   34   36 1
    62   34   37 1
    63   35   62 1
    64   35   63 1
    65   35   64 1
    66   36   65 1
    67   36   66 1
    68   36   67 1
    69   37   68 1
    70   37   69 1
    71   37   70 1
@<TRIPOS>MOLECULE
ZINC35093437
   81    84     0     0     0
SMALL
USER_CHARGES

@<TRIPOS>ATOM
      1 C1         -9.2594  -14.1714   -5.4102 C.3       1 <0>        -0.1539
      2 C2         -8.6770  -13.1596   -4.4212 C.3       1 <0>        -0.1260
      3 C3         -7.1494  -13.1894   -4.5013 C.3       1 <0>        -0.1202
      4 C4         -6.5670  -12.1777   -3.5123 C.3       1 <0>        -0.1142
      5 C5         -5.0394  -12.2075   -3.5924 C.3       1 <0>        -0.0867
      6 C6         -4.4657  -11.2110   -2.6183 C.ar      1 <0>        -0.0498
      7 C7         -4.2368   -9.9073   -3.0213 C.ar      1 <0>        -0.1223
      8 C8         -3.7119   -8.9901   -2.1345 C.ar      1 <0>        -0.0537
      9 C9         -3.4117   -9.3797   -0.8283 C.ar      1 <0>        -0.1304
     10 C10        -3.6450  -10.6964   -0.4282 C.ar      1 <0>        -0.1395
     11 C11        -4.1756  -11.6023   -1.3233 C.ar      1 <0>        -0.1283
     12 C12        -2.8484   -8.4021    0.1272 C.2       1 <0>         0.5736
     13 O1         -2.7699   -7.2285   -0.1794 O.2       1 <0>        -0.5288
     14 N1         -2.4221   -8.8123    1.3382 N.am      1 <0>        -0.5734
     15 C13        -2.0384   -7.8268    2.3521 C.3       1 <0>         0.1029
     16 C14        -3.2562   -7.4765    3.2094 C.3       1 <0>         0.0537
     17 O2         -3.7164   -8.6487    3.8848 O.3       1 <0>        -0.3725
     18 C15        -4.9148   -8.4528    4.6381 C.3       1 <0>         0.0200
     19 C16        -2.3425  -10.2435    1.6407 C.3       1 <0>         0.1794
     20 H1         -2.1156  -10.7955    0.7286 H         1 <0>         0.1296
     21 C17        -1.2383  -10.4862    2.6717 C.3       1 <0>        -0.1505
     22 C18         0.0611   -9.8382    2.1894 C.3       1 <0>        -0.1589
     23 C19        -3.6616  -10.7134    2.1974 C.2       1 <0>         0.3769
     24 N2         -4.6343   -9.8576    2.2832 N.2       1 <0>        -0.4530
     25 C20        -5.8492  -10.2086    2.7738 C.ar      1 <0>         0.1597
     26 C21        -6.8956   -9.2885    2.8658 C.ar      1 <0>        -0.1092
     27 C22        -8.1128   -9.6882    3.3698 C.ar      1 <0>        -0.0766
     28 C23        -8.3142  -10.9968    3.7893 C.ar      1 <0>        -0.1362
     29 C24        -7.2974  -11.9227    3.7090 C.ar      1 <0>        -0.0420
     30 C25        -6.0578  -11.5389    3.2010 C.ar      1 <0>        -0.1951
     31 C26        -4.9367  -12.4834    3.0907 C.2       1 <0>         0.5510
     32 O3         -5.0507  -13.6436    3.4411 O.2       1 <0>        -0.4975
     33 N3         -3.7746  -12.0144    2.5794 N.am      1 <0>        -0.4971
     34 C27        -2.6769  -12.8743    2.4480 C.ar      1 <0>         0.1041
     35 C28        -2.0947  -13.4367    3.5762 C.ar      1 <0>        -0.0890
     36 C29        -1.0127  -14.2847    3.4432 C.ar      1 <0>        -0.1015
     37 C30        -0.5090  -14.5738    2.1882 C.ar      1 <0>        -0.0662
     38 C31        -1.0867  -14.0152    1.0628 C.ar      1 <0>        -0.0992
     39 C32        -2.1722  -13.1707    1.1887 C.ar      1 <0>        -0.1266
     40 C33         0.6720  -15.4990    2.0468 C.3       1 <0>        -0.0885
     41 C34         0.1769  -16.9392    1.8995 C.3       1 <0>        -0.1491
     42 H2        -10.3477  -14.1501   -5.3532 H         1 <0>         0.0538
     43 H3         -8.9434  -13.9144   -6.4213 H         1 <0>         0.0538
     44 H4         -8.9019  -15.1704   -5.1607 H         1 <0>         0.0535
     45 H5         -9.0344  -12.1605   -4.6707 H         1 <0>         0.0610
     46 H6         -8.9929  -13.4166   -3.4102 H         1 <0>         0.0603
     47 H7         -6.7919  -14.1885   -4.2518 H         1 <0>         0.0622
     48 H8         -6.8334  -12.9325   -5.5123 H         1 <0>         0.0632
     49 H9         -6.9244  -11.1786   -3.7618 H         1 <0>         0.0648
     50 H10        -6.8829  -12.4346   -2.5013 H         1 <0>         0.0624
     51 H11        -4.6819  -13.2066   -3.3429 H         1 <0>         0.0748
     52 H12        -4.7234  -11.9505   -4.6034 H         1 <0>         0.0771
     53 H13        -4.4693   -9.6072   -4.0324 H         1 <0>         0.1307
     54 H14        -3.5334   -7.9728   -2.4504 H         1 <0>         0.1374
     55 H15        -3.4148  -11.0042    0.5811 H         1 <0>         0.1580
     56 H16        -4.3607  -12.6203   -1.0137 H         1 <0>         0.1223
     57 H17        -1.2556   -8.2436    2.9858 H         1 <0>         0.1015
     58 H18        -1.6680   -6.9265    1.8618 H         1 <0>         0.1058
     59 H19        -2.9784   -6.7199    3.9432 H         1 <0>         0.0522
     60 H20        -4.0506   -7.0894    2.5713 H         1 <0>         0.0555
     61 H21        -5.1510   -9.3635    5.1884 H         1 <0>         0.0706
     62 H22        -4.7726   -7.6308    5.3397 H         1 <0>         0.0327
     63 H23        -5.7349   -8.2146    3.9607 H         1 <0>         0.0606
     64 H24        -1.5301  -10.0485    3.6263 H         1 <0>         0.0861
     65 H25        -1.0857  -11.5584    2.7950 H         1 <0>         0.0944
     66 H26         0.8688  -10.0882    2.8773 H         1 <0>         0.0650
     67 H27         0.3041  -10.2087    1.1936 H         1 <0>         0.0589
     68 H28        -0.0640   -8.7560    2.1539 H         1 <0>         0.0695
     69 H29        -6.7507   -8.2680    2.5433 H         1 <0>         0.1386
     70 H30        -8.9209   -8.9752    3.4402 H         1 <0>         0.1343
     71 H31        -9.2763  -11.2909    4.1823 H         1 <0>         0.1337
     72 H32        -7.4598  -12.9388    4.0371 H         1 <0>         0.1370
     73 H33        -2.4873  -13.2110    4.5567 H         1 <0>         0.1281
     74 H34        -0.5592  -14.7221    4.3204 H         1 <0>         0.1333
     75 H35        -0.6908  -14.2427    0.0840 H         1 <0>         0.1342
     76 H36        -2.6257  -12.7384    0.3091 H         1 <0>         0.1299
     77 H37         1.2479  -15.2207    1.1642 H         1 <0>         0.0763
     78 H38         1.3031  -15.4205    2.9321 H         1 <0>         0.0761
     79 H39        -0.3990  -17.2175    2.7821 H         1 <0>         0.0571
     80 H40        -0.4542  -17.0176    1.0142 H         1 <0>         0.0569
     81 H41         1.0312  -17.6084    1.7972 H         1 <0>         0.0609
@<TRIPOS>BOND
     1    1    2 1
     2    1   42 1
     3    1   43 1
     4    1   44 1
     5    2    3 1
     6    2   45 1
     7    2   46 1
     8    3    4 1
     9    3   47 1
    10    3   48 1
    11    4    5 1
    12    4   49 1
    13    4   50 1
    14    5    6 1
    15    5   51 1
    16    5   52 1
    17    6   11 ar
    18    6    7 ar
    19    7    8 ar
    20    7   53 1
    21    8    9 ar
    22    8   54 1
    23    9   10 ar
    24    9   12 1
    25   10   11 ar
    26   10   55 1
    27   11   56 1
    28   12   13 2
    29   12   14 am
    30   14   15 1
    31   14   19 1
    32   15   16 1
    33   15   57 1
    34   15   58 1
    35   16   17 1
    36   16   59 1
    37   16   60 1
    38   17   18 1
    39   18   61 1
    40   18   62 1
    41   18   63 1
    42   19   20 1
    43   19   21 1
    44   19   23 1
    45   21   22 1
    46   21   64 1
    47   21   65 1
    48   22   66 1
    49   22   67 1
    50   22   68 1
    51   23   33 1
    52   23   24 2
    53   24   25 1
    54   25   30 ar
    55   25   26 ar
    56   26   27 ar
    57   26   69 1
    58   27   28 ar
    59   27   70 1
    60   28   29 ar
    61   28   71 1
    62   29   30 ar
    63   29   72 1
    64   30   31 1
    65   31   32 2
    66   31   33 am
    67   33   34 1
    68   34   39 ar
    69   34   35 ar
    70   35   36 ar
    71   35   73 1
    72   36   37 ar
    73   36   74 1
    74   37   38 ar
    75   37   40 1
    76   38   39 ar
    77   38   75 1
    78   39   76 1
    79   40   41 1
    80   40   77 1
    81   40   78 1
    82   41   79 1
    83   41   80 1
    84   41   81 1
@<TRIPOS>MOLECULE
ZINC35798663
   75    76     0     0     0
SMALL
USER_CHARGES

@<TRIPOS>ATOM
      1 C1         -0.8645   -1.8365   -1.2607 C.3       1 <0>        -0.1575
      2 C2         -1.4008   -0.7040   -2.1387 C.3       1 <0>        -0.1284
      3 C3         -0.4749   -0.5085   -3.3409 C.3       1 <0>         0.1307
      4 H1         -0.3361   -1.4616   -3.8514 H         1 <0>         0.0982
      5 C4         -1.0990    0.5010   -4.3065 C.3       1 <0>        -0.1674
      6 N1          0.8226   -0.0071   -2.8815 N.am      1 <0>        -0.5938
      7 C5          0.9210    1.3230   -2.2753 C.3       1 <0>         0.0934
      8 C6          0.8719    1.1958   -0.7744 C.2       1 <0>         0.5042
      9 O1          0.8727    0.0982   -0.2585 O.2       1 <0>        -0.5029
     10 N2          0.8270    2.3018   -0.0055 N.am      1 <0>        -0.6054
     11 C7          0.7133    3.6229   -0.6284 C.3       1 <0>         0.1460
     12 C8         -0.7323    4.0484   -0.6434 C.ar      1 <0>        -0.1087
     13 C9         -1.5588    3.6521   -1.6782 C.ar      1 <0>        -0.1103
     14 C10        -2.8848    4.0425   -1.6920 C.ar      1 <0>        -0.1159
     15 C11        -3.3844    4.8287   -0.6708 C.ar      1 <0>        -0.1137
     16 C12        -2.5582    5.2243    0.3645 C.ar      1 <0>        -0.1166
     17 C13        -1.2333    4.8304    0.3805 C.ar      1 <0>        -0.1042
     18 C14         0.8919    2.1829    1.4532 C.3       1 <0>         0.2031
     19 C15         2.3307    2.2380    1.8981 C.2       1 <0>        -0.1729
     20 C16         3.0766    3.3157    2.2438 C.2       1 <0>        -0.1397
     21 C17         4.3917    3.1263    2.6250 C.2       1 <0>        -0.1707
     22 C18         4.8966    1.8685    2.6419 C.2       1 <0>        -0.1443
     23 S1          3.4927    0.9000    2.1143 S.3       1 <0>         0.0724
     24 C19         6.2818    1.4068    3.0148 C.3       1 <0>        -0.0725
     25 C20         1.9259   -0.7693   -3.0167 C.2       1 <0>         0.5244
     26 O2          2.9827   -0.3938   -2.5551 O.2       1 <0>        -0.5238
     27 C21         1.8463   -2.0883   -3.7413 C.3       1 <0>        -0.1363
     28 C22         3.1908   -2.8107   -3.6346 C.3       1 <0>        -0.0762
     29 H2          3.9834   -2.1595   -4.0030 H         1 <0>         0.0837
     30 C23         3.4631   -3.1681   -2.1720 C.3       1 <0>        -0.1732
     31 C24         3.1505   -4.0898   -4.4731 C.3       1 <0>        -0.1053
     32 C25         4.5779   -4.5167   -4.8212 C.3       1 <0>        -0.0671
     33 C26         5.3815   -4.7077   -3.5333 C.3       1 <0>        -0.1485
     34 C27         4.5410   -5.8335   -5.5994 C.3       1 <0>        -0.1420
     35 C28         5.2386   -3.4357   -5.6790 C.3       1 <0>        -0.1455
     36 H3          0.1776   -1.6391   -1.0096 H         1 <0>         0.0858
     37 H4         -1.4536   -1.8969   -0.3456 H         1 <0>         0.0484
     38 H5         -0.9356   -2.7802   -1.8015 H         1 <0>         0.0430
     39 H6         -2.4015   -0.9580   -2.4883 H         1 <0>         0.0688
     40 H7         -1.4419    0.2176   -1.5581 H         1 <0>         0.0602
     41 H8         -1.1617    1.4757   -3.8226 H         1 <0>         0.0574
     42 H9         -0.4808    0.5784   -5.2009 H         1 <0>         0.0639
     43 H10        -2.0992    0.1681   -4.5838 H         1 <0>         0.0735
     44 H11         1.8618    1.7879   -2.5699 H         1 <0>         0.1078
     45 H12         0.0889    1.9396   -2.6151 H         1 <0>         0.1053
     46 H13         1.2986    4.3447   -0.0589 H         1 <0>         0.0905
     47 H14         1.0889    3.5761   -1.6506 H         1 <0>         0.0896
     48 H15        -1.1684    3.0378   -2.4761 H         1 <0>         0.1173
     49 H16        -3.5303    3.7334   -2.5009 H         1 <0>         0.1234
     50 H17        -4.4203    5.1343   -0.6819 H         1 <0>         0.1232
     51 H18        -2.9485    5.8389    1.1622 H         1 <0>         0.1239
     52 H19        -0.5887    5.1363    1.1912 H         1 <0>         0.1223
     53 H20         0.3388    3.0037    1.9096 H         1 <0>         0.0975
     54 H21         0.4528    1.2337    1.7603 H         1 <0>         0.0986
     55 H22         2.6499    4.3076    2.2213 H         1 <0>         0.1282
     56 H23         5.0079    3.9680    2.9048 H         1 <0>         0.1297
     57 H24         6.3171    1.1887    4.0822 H         1 <0>         0.0789
     58 H25         6.5287    0.5067    2.4517 H         1 <0>         0.0737
     59 H26         7.0016    2.1910    2.7802 H         1 <0>         0.0801
     60 H27         1.0667   -2.7033   -3.2918 H         1 <0>         0.0914
     61 H28         1.6106   -1.9126   -4.7909 H         1 <0>         0.0910
     62 H29         2.6393   -3.7680   -1.7852 H         1 <0>         0.0440
     63 H30         4.3903   -3.7370   -2.1035 H         1 <0>         0.0762
     64 H31         3.5535   -2.2539   -1.5853 H         1 <0>         0.0674
     65 H32         2.6628   -4.8817   -3.9047 H         1 <0>         0.0634
     66 H33         2.5925   -3.9050   -5.3911 H         1 <0>         0.0608
     67 H34         4.7956   -5.2905   -2.8225 H         1 <0>         0.0586
     68 H35         6.3086   -5.2347   -3.7583 H         1 <0>         0.0498
     69 H36         5.6126   -3.7339   -3.1015 H         1 <0>         0.0662
     70 H37         3.9685   -5.6974   -6.5169 H         1 <0>         0.0533
     71 H38         5.5579   -6.1376   -5.8473 H         1 <0>         0.0541
     72 H39         4.0703   -6.6036   -4.9882 H         1 <0>         0.0538
     73 H40         5.2649   -2.4976   -5.1247 H         1 <0>         0.0599
     74 H41         6.2556   -3.7398   -5.9270 H         1 <0>         0.0530
     75 H42         4.6662   -3.2996   -6.5965 H         1 <0>         0.0528
@<TRIPOS>BOND
     1    1    2 1
     2    1   36 1
     3    1   37 1
     4    1   38 1
     5    2    3 1
     6    2   39 1
     7    2   40 1
     8    3    4 1
     9    3    5 1
    10    3    6 1
    11    5   41 1
    12    5   42 1
    13    5   43 1
    14    6    7 1
    15    6   25 am
    16    7    8 1
    17    7   44 1
    18    7   45 1
    19    8    9 2
    20    8   10 am
    21   10   11 1
    22   10   18 1
    23   11   12 1
    24   11   46 1
    25   11   47 1
    26   12   17 ar
    27   12   13 ar
    28   13   14 ar
    29   13   48 1
    30   14   15 ar
    31   14   49 1
    32   15   16 ar
    33   15   50 1
    34   16   17 ar
    35   16   51 1
    36   17   52 1
    37   18   19 1
    38   18   53 1
    39   18   54 1
    40   19   23 1
    41   19   20 2
    42   20   21 1
    43   20   55 1
    44   21   22 2
    45   21   56 1
    46   22   23 1
    47   22   24 1
    48   24   57 1
    49   24   58 1
    50   24   59 1
    51   25   26 2
    52   25   27 1
    53   27   28 1
    54   27   60 1
    55   27   61 1
    56   28   29 1
    57   28   30 1
    58   28   31 1
    59   30   62 1
    60   30   63 1
    61   30   64 1
    62   31   32 1
    63   31   65 1
    64   31   66 1
    65   32   33 1
    66   32   34 1
    67   32   35 1
    68   33   67 1
    69   33   68 1
    70   33   69 1
    71   34   70 1
    72   34   71 1
    73   34   72 1
    74   35   73 1
    75   35   74 1
    76   35   75 1
@<TRIPOS>MOLECULE
ZINC39722070
   70    72     0     0     0
SMALL
USER_CHARGES

@<TRIPOS>ATOM
      1 C1         -0.0187    1.5258    0.0104 C.3       1 <0>        -0.1549
      2 C2          0.0021   -0.0041    0.0020 C.3       1 <0>        -0.1257
      3 C3         -1.4333   -0.5336    0.0129 C.3       1 <0>        -0.1159
      4 C4         -1.4126   -2.0635    0.0045 C.3       1 <0>        -0.0795
      5 C5         -2.8264   -2.5851    0.0152 C.ar      1 <0>        -0.0795
      6 C6         -3.4731   -2.8282    1.2155 C.ar      1 <0>        -0.0746
      7 C7         -4.7633   -3.3038    1.2458 C.ar      1 <0>        -0.1080
      8 C8         -5.4594   -3.5556    0.0553 C.ar      1 <0>         0.1187
      9 C9         -4.7812   -3.3009   -1.1453 C.ar      1 <0>        -0.1988
     10 C10        -3.4933   -2.8206   -1.1742 C.ar      1 <0>        -0.0324
     11 S1         -5.9750   -3.7354   -2.3830 S.3       1 <0>         0.2089
     12 C11        -7.2357   -4.2037   -1.3749 C.2       1 <0>         0.3940
     13 N1         -8.4389   -4.6449   -1.7259 N.2       1 <0>        -0.6009
     14 C12        -8.7589   -4.7563   -3.0190 C.2       1 <0>         0.5271
     15 O1         -7.9470   -4.4533   -3.8760 O.2       1 <0>        -0.5210
     16 C13       -10.1002   -5.2481   -3.4104 C.ar      1 <0>        -0.0546
     17 C14       -11.0335   -5.5903   -2.4319 C.ar      1 <0>        -0.0800
     18 C15       -12.2813   -6.0478   -2.8027 C.ar      1 <0>        -0.0356
     19 C16       -12.6073   -6.1679   -4.1419 C.ar      1 <0>        -0.6555
     20 C17       -11.6857   -5.8306   -5.1170 C.ar      1 <0>        -0.0320
     21 C18       -10.4370   -5.3655   -4.7588 C.ar      1 <0>        -0.0851
     22 S2        -14.2026   -6.7535   -4.6074 S.o2      1 <0>         2.6861
     23 O2        -14.0715   -7.2927   -5.9156 O.2       1 <0>        -0.9492
     24 O3        -14.6896   -7.5186   -3.5134 O.2       1 <0>        -0.9515
     25 N2        -15.1909   -5.4312   -4.7373 N.pl3     1 <0>        -0.9943
     26 C19       -15.3132   -4.7311   -6.0184 C.3       1 <0>         0.1190
     27 C20       -16.5329   -5.2613   -6.7748 C.3       1 <0>        -0.1751
     28 C21       -15.9429   -4.9613   -3.5711 C.3       1 <0>         0.1113
     29 C22       -15.1575   -3.8500   -2.8718 C.3       1 <0>        -0.1455
     30 C23       -15.9428   -3.3593   -1.6538 C.3       1 <0>        -0.1232
     31 C24       -15.1575   -2.2480   -0.9545 C.3       1 <0>        -0.1529
     32 N3         -6.7461   -4.0286   -0.1201 N.pl3     1 <0>        -0.4945
     33 C25        -7.5793   -4.3407    1.0439 C.3       1 <0>         0.1277
     34 C26        -8.3559   -3.1144    1.4490 C.2       1 <0>        -0.1905
     35 C27        -9.6611   -3.1686    1.5472 C.2       1 <0>        -0.1443
     36 H1          1.0039    1.9031    0.0027 H         1 <0>         0.0548
     37 H2         -0.5459    1.8868   -0.8726 H         1 <0>         0.0540
     38 H3         -0.5289    1.8773    0.9072 H         1 <0>         0.0537
     39 H4          0.5123   -0.3556   -0.8948 H         1 <0>         0.0629
     40 H5          0.5293   -0.3651    0.8851 H         1 <0>         0.0626
     41 H6         -1.9435   -0.1821    0.9097 H         1 <0>         0.0645
     42 H7         -1.9605   -0.1726   -0.8702 H         1 <0>         0.0647
     43 H8         -0.9024   -2.4150   -0.8923 H         1 <0>         0.0777
     44 H9         -0.8854   -2.4246    0.8875 H         1 <0>         0.0783
     45 H10        -2.9549   -2.6412    2.1444 H         1 <0>         0.1382
     46 H11        -5.2445   -3.4852    2.1955 H         1 <0>         0.1335
     47 H12        -3.0044   -2.6318   -2.1185 H         1 <0>         0.1397
     48 H13       -10.7799   -5.4976   -1.3862 H         1 <0>         0.1471
     49 H14       -13.0048   -6.3131   -2.0461 H         1 <0>         0.1446
     50 H15       -11.9459   -5.9268   -6.1608 H         1 <0>         0.1461
     51 H16        -9.7202   -5.0975   -5.5209 H         1 <0>         0.1453
     52 H17       -15.4333   -3.6628   -5.8386 H         1 <0>         0.0819
     53 H18       -14.4153   -4.9009   -6.6124 H         1 <0>         0.0818
     54 H19       -16.6240   -4.7405   -7.7280 H         1 <0>         0.0702
     55 H20       -16.4128   -6.3297   -6.9546 H         1 <0>         0.0641
     56 H21       -17.4309   -5.0915   -6.1808 H         1 <0>         0.0602
     57 H22       -16.9098   -4.5752   -3.8937 H         1 <0>         0.0874
     58 H23       -16.0949   -5.7896   -2.8790 H         1 <0>         0.0949
     59 H24       -14.1906   -4.2361   -2.5491 H         1 <0>         0.0642
     60 H25       -15.0054   -3.0217   -3.5638 H         1 <0>         0.0695
     61 H26       -16.9098   -2.9732   -1.9764 H         1 <0>         0.0649
     62 H27       -16.0949   -4.1875   -0.9617 H         1 <0>         0.0661
     63 H28       -15.7170   -1.8984   -0.0868 H         1 <0>         0.0554
     64 H29       -14.1906   -2.6341   -0.6319 H         1 <0>         0.0538
     65 H30       -15.0054   -1.4197   -1.6465 H         1 <0>         0.0531
     66 H31        -8.2727   -5.1425    0.7899 H         1 <0>         0.1083
     67 H32        -6.9440   -4.6581    1.8708 H         1 <0>         0.0977
     68 H33        -7.8365   -2.1910    1.6583 H         1 <0>         0.1122
     69 H34       -10.1806   -4.0920    1.3379 H         1 <0>         0.1043
     70 H35       -10.2177   -2.2898    1.8376 H         1 <0>         0.1043
@<TRIPOS>BOND
     1    1    2 1
     2    1   36 1
     3    1   37 1
     4    1   38 1
     5    2    3 1
     6    2   39 1
     7    2   40 1
     8    3    4 1
     9    3   41 1
    10    3   42 1
    11    4    5 1
    12    4   43 1
    13    4   44 1
    14    5   10 ar
    15    5    6 ar
    16    6    7 ar
    17    6   45 1
    18    7    8 ar
    19    7   46 1
    20    8   32 1
    21    8    9 ar
    22    9   10 ar
    23    9   11 1
    24   10   47 1
    25   11   12 1
    26   12   13 2
    27   12   32 1
    28   13   14 1
    29   14   15 2
    30   14   16 1
    31   16   21 ar
    32   16   17 ar
    33   17   18 ar
    34   17   48 1
    35   18   19 ar
    36   18   49 1
    37   19   20 ar
    38   19   22 1
    39   20   21 ar
    40   20   50 1
    41   21   51 1
    42   22   23 2
    43   22   24 2
    44   22   25 1
    45   25   26 1
    46   25   28 1
    47   26   27 1
    48   26   52 1
    49   26   53 1
    50   27   54 1
    51   27   55 1
    52   27   56 1
    53   28   29 1
    54   28   57 1
    55   28   58 1
    56   29   30 1
    57   29   59 1
    58   29   60 1
    59   30   31 1
    60   30   61 1
    61   30   62 1
    62   31   63 1
    63   31   64 1
    64   31   65 1
    65   32   33 1
    66   33   34 1
    67   33   66 1
    68   33   67 1
    69   34   35 2
    70   34   68 1
    71   35   69 1
    72   35   70 1
@<TRIPOS>MOLECULE
ZINC04655189
   78    78     0     0     0
SMALL
USER_CHARGES
bis(8-methylnonyl) benzene-1,2-dicarboxylate
@<TRIPOS>ATOM
      1 C1         -2.0046    1.0029    8.8458 C.3       1 <0>        -0.1499
      2 C2         -0.6044    1.6138    8.7613 C.3       1 <0>        -0.0987
      3 C3          0.2033    1.2105    9.9966 C.3       1 <0>        -0.1492
      4 C4          0.0997    1.1032    7.5026 C.3       1 <0>        -0.1159
      5 C5         -0.6392    1.6117    6.2631 C.3       1 <0>        -0.1218
      6 C6          0.0649    1.1011    5.0043 C.3       1 <0>        -0.1211
      7 C7         -0.6739    1.6096    3.7648 C.3       1 <0>        -0.1179
      8 C8          0.0301    1.0990    2.5061 C.3       1 <0>        -0.1181
      9 C9         -0.7087    1.6076    1.2666 C.3       1 <0>        -0.1190
     10 C10        -0.0046    1.0970    0.0079 C.3       1 <0>         0.0684
     11 O1         -0.7059    1.5796   -1.1684 O.3       1 <0>        -0.3515
     12 C11        -0.2104    1.2169   -2.3674 C.2       1 <0>         0.4996
     13 O2          0.7801    0.5168   -2.4287 O.2       1 <0>        -0.4796
     14 C12        -0.8725    1.6712   -3.6089 C.ar      1 <0>        -0.0815
     15 C13        -2.0780    2.3651   -3.5463 C.ar      1 <0>        -0.0640
     16 C14        -2.6908    2.7920   -4.7094 C.ar      1 <0>        -0.1065
     17 C15        -2.1191    2.5251   -5.9409 C.ar      1 <0>        -0.0870
     18 C16        -0.9254    1.8330   -6.0229 C.ar      1 <0>        -0.0844
     19 C17        -0.2908    1.3997   -4.8618 C.ar      1 <0>        -0.0504
     20 C18         0.9858    0.6586   -4.9442 C.2       1 <0>         0.5087
     21 O3          1.9593    1.0566   -4.3367 O.2       1 <0>        -0.4684
     22 O4          1.0693   -0.4580   -5.6930 O.3       1 <0>        -0.3522
     23 C19         2.3538   -1.1341   -5.7275 C.3       1 <0>         0.0683
     24 C20         2.2551   -2.3713   -6.6221 C.3       1 <0>        -0.1188
     25 C21         3.6086   -3.0837   -6.6585 C.3       1 <0>        -0.1178
     26 C22         3.5099   -4.3209   -7.5531 C.3       1 <0>        -0.1180
     27 C23         4.8635   -5.0333   -7.5895 C.3       1 <0>        -0.1210
     28 C24         4.7647   -6.2706   -8.4841 C.3       1 <0>        -0.1218
     29 C25         6.1183   -6.9830   -8.5205 C.3       1 <0>        -0.1159
     30 C26         6.0196   -8.2202   -9.4151 C.3       1 <0>        -0.0987
     31 C27         7.4016   -8.8623   -9.5519 C.3       1 <0>        -0.1491
     32 C28         5.0498   -9.2253   -8.7903 C.3       1 <0>        -0.1499
     33 H1         -1.9251   -0.0833    8.8892 H         1 <0>         0.0534
     34 H2         -2.5062    1.3667    9.7425 H         1 <0>         0.0525
     35 H3         -2.5800    1.2902    7.9657 H         1 <0>         0.0564
     36 H4         -0.6838    2.7000    8.7179 H         1 <0>         0.0682
     37 H5          1.2009    1.6457    9.9364 H         1 <0>         0.0535
     38 H6         -0.2983    1.5743   10.8933 H         1 <0>         0.0538
     39 H7          0.2828    0.1243   10.0400 H         1 <0>         0.0538
     40 H8          0.1004    0.0132    7.5035 H         1 <0>         0.0611
     41 H9          1.1271    1.4671    7.4880 H         1 <0>         0.0607
     42 H10        -0.6398    2.7017    6.2622 H         1 <0>         0.0606
     43 H11        -1.6665    1.2477    6.2777 H         1 <0>         0.0640
     44 H12         0.0656    0.0111    5.0052 H         1 <0>         0.0613
     45 H13         1.0923    1.4650    4.9897 H         1 <0>         0.0613
     46 H14        -0.6746    2.6996    3.7639 H         1 <0>         0.0636
     47 H15        -1.7013    1.2457    3.7794 H         1 <0>         0.0634
     48 H16         0.0308    0.0090    2.5070 H         1 <0>         0.0661
     49 H17         1.0575    1.4630    2.4915 H         1 <0>         0.0664
     50 H18        -0.7094    2.6976    1.2657 H         1 <0>         0.0755
     51 H19        -1.7361    1.2436    1.2812 H         1 <0>         0.0752
     52 H20        -0.0040    0.0070    0.0087 H         1 <0>         0.0715
     53 H21         1.0227    1.4609   -0.0068 H         1 <0>         0.0728
     54 H22        -2.5322    2.5734   -2.5888 H         1 <0>         0.1489
     55 H23        -3.6239    3.3332   -4.6569 H         1 <0>         0.1417
     56 H24        -2.6088    2.8594   -6.8436 H         1 <0>         0.1421
     57 H25        -0.4852    1.6280   -6.9876 H         1 <0>         0.1439
     58 H26         3.1100   -0.4573   -6.1254 H         1 <0>         0.0704
     59 H27         2.6323   -1.4369   -4.7181 H         1 <0>         0.0729
     60 H28         1.4989   -3.0480   -6.2242 H         1 <0>         0.0744
     61 H29         1.9767   -2.0685   -7.6315 H         1 <0>         0.0745
     62 H30         4.3648   -2.4070   -7.0564 H         1 <0>         0.0660
     63 H31         3.8871   -3.3865   -5.6491 H         1 <0>         0.0661
     64 H32         2.7537   -4.9976   -7.1552 H         1 <0>         0.0633
     65 H33         3.2315   -4.0181   -8.5625 H         1 <0>         0.0634
     66 H34         5.6197   -4.3566   -7.9874 H         1 <0>         0.0613
     67 H35         5.1419   -5.3361   -6.5801 H         1 <0>         0.0614
     68 H36         4.0086   -6.9473   -8.0862 H         1 <0>         0.0640
     69 H37         4.4863   -5.9678   -9.4935 H         1 <0>         0.0605
     70 H38         6.8745   -6.3063   -8.9184 H         1 <0>         0.0607
     71 H39         6.3967   -7.2858   -7.5111 H         1 <0>         0.0611
     72 H40         5.6555   -7.9282  -10.4002 H         1 <0>         0.0681
     73 H41         7.7656   -9.1543   -8.5668 H         1 <0>         0.0537
     74 H42         7.3312   -9.7437  -10.1892 H         1 <0>         0.0537
     75 H43         8.0924   -8.1462   -9.9970 H         1 <0>         0.0535
     76 H44         4.0653   -8.7679   -8.6929 H         1 <0>         0.0564
     77 H45         4.9795  -10.1067   -9.4277 H         1 <0>         0.0525
     78 H46         5.4139   -9.5173   -7.8053 H         1 <0>         0.0534
@<TRIPOS>BOND
     1    1    2 1
     2    1   33 1
     3    1   34 1
     4    1   35 1
     5    2    3 1
     6    2    4 1
     7    2   36 1
     8    3   37 1
     9    3   38 1
    10    3   39 1
    11    4    5 1
    12    4   40 1
    13    4   41 1
    14    5    6 1
    15    5   42 1
    16    5   43 1
    17    6    7 1
    18    6   44 1
    19    6   45 1
    20    7    8 1
    21    7   46 1
    22    7   47 1
    23    8    9 1
    24    8   48 1
    25    8   49 1
    26    9   10 1
    27    9   50 1
    28    9   51 1
    29   10   11 1
    30   10   52 1
    31   10   53 1
    32   11   12 1
    33   12   13 2
    34   12   14 1
    35   14   19 ar
    36   14   15 ar
    37   15   16 ar
    38   15   54 1
    39   16   17 ar
    40   16   55 1
    41   17   18 ar
    42   17   56 1
    43   18   19 ar
    44   18   57 1
    45   19   20 1
    46   20   21 2
    47   20   22 1
    48   22   23 1
    49   23   24 1
    50   23   58 1
    51   23   59 1
    52   24   25 1
    53   24   60 1
    54   24   61 1
    55   25   26 1
    56   25   62 1
    57   25   63 1
    58   26   27 1
    59   26   64 1
    60   26   65 1
    61   27   28 1
    62   27   66 1
    63   27   67 1
    64   28   29 1
    65   28   68 1
    66   28   69 1
    67   29   30 1
    68   29   70 1
    69   29   71 1
    70   30   31 1
    71   30   32 1
    72   30   72 1
    73   31   73 1
    74   31   74 1
    75   31   75 1
    76   32   76 1
    77   32   77 1
    78   32   78 1
@<TRIPOS>MOLECULE
ZINC31374605
   66    65     0     0     0
SMALL
USER_CHARGES
2,2,4-trimethylpentyl 2-[2-oxo-2-(2,2,4-trimethylpentoxy)ethyl]disulfanyldisulfanylacetate
@<TRIPOS>ATOM
      1 C1          4.5834   -0.3889   -3.2965 C.3       1 <0>        -0.1608
      2 C2          3.6136   -0.6414   -4.4526 C.3       1 <0>        -0.1043
      3 C3          4.3163   -1.4586   -5.5385 C.3       1 <0>        -0.1510
      4 C4          2.3978   -1.4151   -3.9386 C.3       1 <0>        -0.1078
      5 C5          1.4765   -0.4655   -3.1702 C.3       1 <0>        -0.0593
      6 C6          1.5665    0.9356   -3.7783 C.3       1 <0>        -0.1493
      7 C7          1.9071   -0.4133   -1.7030 C.3       1 <0>        -0.1552
      8 C8          0.0347   -0.9692   -3.2610 C.3       1 <0>         0.0760
      9 O1         -0.8396   -0.0680   -2.5317 O.3       1 <0>        -0.3437
     10 C9         -2.1474   -0.3698   -2.5133 C.2       1 <0>         0.4595
     11 O2         -2.5483   -1.3544   -3.0875 O.2       1 <0>        -0.4820
     12 C10        -3.1165    0.5228   -1.7817 C.3       1 <0>        -0.1186
     13 S1         -4.7955   -0.1436   -1.9472 S.3       1 <0>        -0.0340
     14 S2         -4.7668   -1.8487   -0.8096 S.3       1 <0>        -0.0518
     15 S3         -5.4972   -1.2445    1.0081 S.3       1 <0>        -0.0518
     16 S4         -7.5319   -1.3661    0.7903 S.3       1 <0>        -0.0340
     17 C11        -7.9474   -3.0021    1.4547 C.3       1 <0>        -0.1186
     18 C12        -7.7549   -3.0010    2.9494 C.2       1 <0>         0.4596
     19 O3         -7.3762   -1.9993    3.5089 O.2       1 <0>        -0.4819
     20 O4         -8.0041   -4.1127    3.6590 O.3       1 <0>        -0.3435
     21 C13        -7.7969   -4.0389    5.0943 C.3       1 <0>         0.0758
     22 C14        -8.1295   -5.3913    5.7278 C.3       1 <0>        -0.0592
     23 C15        -9.5906   -5.7433    5.4408 C.3       1 <0>        -0.1472
     24 C16        -7.2194   -6.4694    5.1359 C.3       1 <0>        -0.1591
     25 C17        -7.9113   -5.3135    7.2401 C.3       1 <0>        -0.1070
     26 C18        -8.2565   -6.6619    7.8753 C.3       1 <0>        -0.0982
     27 C19        -7.0496   -7.5969    7.7748 C.3       1 <0>        -0.1751
     28 C20        -8.6198   -6.4544    9.3470 C.3       1 <0>        -0.1501
     29 H1          4.0782    0.1986   -2.5158 H         1 <0>         0.0678
     30 H2          5.4575    0.1673   -3.6660 H         1 <0>         0.0533
     31 H3          4.9117   -1.3511   -2.8765 H         1 <0>         0.0545
     32 H4          3.2853    0.3208   -4.8726 H         1 <0>         0.0848
     33 H5          3.6190   -1.6401   -6.3697 H         1 <0>         0.0540
     34 H6          4.6446   -2.4208   -5.1185 H         1 <0>         0.0537
     35 H7          5.1904   -0.9024   -5.9080 H         1 <0>         0.0553
     36 H8          1.8514   -1.8471   -4.7900 H         1 <0>         0.0658
     37 H9          2.7325   -2.2221   -3.2702 H         1 <0>         0.0696
     38 H10         0.9041    1.6183   -3.2259 H         1 <0>         0.0615
     39 H11         1.2569    0.8980   -4.8332 H         1 <0>         0.0560
     40 H12         2.6031    1.2977   -3.7130 H         1 <0>         0.0694
     41 H13         1.2447    0.2694   -1.1506 H         1 <0>         0.0618
     42 H14         2.9437   -0.0512   -1.6378 H         1 <0>         0.0732
     43 H15         1.8424   -1.4206   -1.2658 H         1 <0>         0.0542
     44 H16        -0.2748   -1.0067   -4.3159 H         1 <0>         0.0740
     45 H17        -0.0300   -1.9766   -2.8239 H         1 <0>         0.0730
     46 H18        -2.8427    0.5667   -0.7172 H         1 <0>         0.1379
     47 H19        -3.0795    1.5346   -2.2118 H         1 <0>         0.1624
     48 H20        -8.9960   -3.2375    1.2202 H         1 <0>         0.1624
     49 H21        -7.2913   -3.7595    1.0011 H         1 <0>         0.1380
     50 H22        -6.7465   -3.7858    5.3006 H         1 <0>         0.0731
     51 H23        -8.4512   -3.2638    5.5199 H         1 <0>         0.0739
     52 H24        -9.8298   -6.7156    5.8962 H         1 <0>         0.0649
     53 H25        -9.7475   -5.7992    4.3535 H         1 <0>         0.0634
     54 H26       -10.2449   -4.9682    5.8664 H         1 <0>         0.0552
     55 H27        -7.4586   -7.4417    5.5914 H         1 <0>         0.0809
     56 H28        -6.1690   -6.2163    5.3422 H         1 <0>         0.0556
     57 H29        -7.3764   -6.5253    4.0486 H         1 <0>         0.0610
     58 H30        -6.8587   -5.0697    7.4466 H         1 <0>         0.0674
     59 H31        -8.5588   -4.5319    7.6643 H         1 <0>         0.0669
     60 H32        -9.1113   -7.1083    7.3461 H         1 <0>         0.0787
     61 H33        -7.2978   -8.5663    8.2315 H         1 <0>         0.0522
     62 H34        -6.1948   -7.1504    8.3040 H         1 <0>         0.0531
     63 H35        -6.7885   -7.7461    6.7167 H         1 <0>         0.0804
     64 H36        -8.8680   -7.4239    9.8036 H         1 <0>         0.0551
     65 H37        -9.4875   -5.7822    9.4192 H         1 <0>         0.0543
     66 H38        -7.7651   -6.0079    9.8762 H         1 <0>         0.0540
@<TRIPOS>BOND
     1    1    2 1
     2    1   29 1
     3    1   30 1
     4    1   31 1
     5    2    3 1
     6    2    4 1
     7    2   32 1
     8    3   33 1
     9    3   34 1
    10    3   35 1
    11    4    5 1
    12    4   36 1
    13    4   37 1
    14    5    6 1
    15    5    7 1
    16    5    8 1
    17    6   38 1
    18    6   39 1
    19    6   40 1
    20    7   41 1
    21    7   42 1
    22    7   43 1
    23    8    9 1
    24    8   44 1
    25    8   45 1
    26    9   10 1
    27   10   11 2
    28   10   12 1
    29   12   13 1
    30   12   46 1
    31   12   47 1
    32   13   14 1
    33   14   15 1
    34   15   16 1
    35   16   17 1
    36   17   18 1
    37   17   48 1
    38   17   49 1
    39   18   19 2
    40   18   20 1
    41   20   21 1
    42   21   22 1
    43   21   50 1
    44   21   51 1
    45   22   23 1
    46   22   24 1
    47   22   25 1
    48   23   52 1
    49   23   53 1
    50   23   54 1
    51   24   55 1
    52   24   56 1
    53   24   57 1
    54   25   26 1
    55   25   58 1
    56   25   59 1
    57   26   27 1
    58   26   28 1
    59   26   60 1
    60   27   61 1
    61   27   62 1
    62   27   63 1
    63   28   64 1
    64   28   65 1
    65   28   66 1
@<TRIPOS>MOLECULE
ZINC34931510
   79    81     0     0     0
SMALL
USER_CHARGES

@<TRIPOS>ATOM
      1 C1         -2.0990    0.7016   -0.2155 C.3       1 <0>        -0.1536
      2 C2         -1.6749   -0.7467    0.0364 C.3       1 <0>         0.0542
      3 O1         -0.3324   -0.7717    0.5253 O.3       1 <0>        -0.3159
      4 C3          0.2011   -1.9908    0.8014 C.ar      1 <0>         0.1366
      5 C4         -0.5501   -3.1396    0.6002 C.ar      1 <0>        -0.2080
      6 C5         -0.0054   -4.3777    0.8811 C.ar      1 <0>        -0.0671
      7 C6          1.2872   -4.4724    1.3628 C.ar      1 <0>        -0.1475
      8 C7          2.0378   -3.3288    1.5646 C.ar      1 <0>        -0.0636
      9 C8          1.4998   -2.0888    1.2794 C.ar      1 <0>        -0.1514
     10 C9          1.8788   -5.8242    1.6689 C.3       1 <0>         0.1511
     11 N1          2.6429   -6.2962    0.5115 N.am      1 <0>        -0.6089
     12 C10         4.0231   -5.8471    0.3123 C.3       1 <0>         0.1172
     13 C11         4.9799   -6.8124    1.0149 C.3       1 <0>        -0.1242
     14 C12         6.4213   -6.3434    0.8069 C.3       1 <0>        -0.0043
     15 C13         7.3547   -7.2219    1.5993 C.ar      1 <0>        -0.0700
     16 C14         8.4686   -6.6748    2.2083 C.ar      1 <0>        -0.1139
     17 C15         9.3248   -7.4806    2.9352 C.ar      1 <0>        -0.1176
     18 C16         9.0669   -8.8336    3.0534 C.ar      1 <0>        -0.1231
     19 C17         7.9526   -9.3806    2.4452 C.ar      1 <0>        -0.1178
     20 C18         7.0941   -8.5739    1.7219 C.ar      1 <0>        -0.1138
     21 C19         6.7714   -6.4295   -0.6563 C.ar      1 <0>        -0.0728
     22 C20         6.6304   -7.6276   -1.3313 C.ar      1 <0>        -0.0981
     23 C21         6.9515   -7.7067   -2.6735 C.ar      1 <0>        -0.1146
     24 C22         7.4131   -6.5875   -3.3409 C.ar      1 <0>        -0.1217
     25 C23         7.5532   -5.3892   -2.6661 C.ar      1 <0>        -0.1198
     26 C24         7.2280   -5.3091   -1.3249 C.ar      1 <0>        -0.1171
     27 C25         2.0761   -7.1437   -0.3700 C.2       1 <0>         0.5158
     28 O2          2.7340   -7.6010   -1.2805 O.2       1 <0>        -0.5251
     29 C26         0.6249   -7.5231   -0.2243 C.3       1 <0>        -0.1422
     30 C27         0.2676   -8.5831   -1.2681 C.3       1 <0>        -0.0802
     31 H1          0.5230   -8.2151   -2.2618 H         1 <0>         0.0877
     32 C28         1.0519   -9.8653   -0.9820 C.3       1 <0>        -0.1510
     33 C29        -1.2324   -8.8775   -1.2032 C.3       1 <0>        -0.1050
     34 C30        -1.6207   -9.8036   -2.3575 C.3       1 <0>        -0.0654
     35 C31        -1.2227  -11.2406   -2.0146 C.3       1 <0>        -0.1669
     36 C32        -3.1326   -9.7329   -2.5816 C.3       1 <0>        -0.1423
     37 C33        -0.8953   -9.3635   -3.6307 C.3       1 <0>        -0.1482
     38 H2         -1.4351    1.1515   -0.9536 H         1 <0>         0.0670
     39 H3         -3.1231    0.7207   -0.5885 H         1 <0>         0.0797
     40 H4         -2.0412    1.2644    0.7162 H         1 <0>         0.0671
     41 H5         -2.3389   -1.1966    0.7745 H         1 <0>         0.0628
     42 H6         -1.7328   -1.3095   -0.8953 H         1 <0>         0.0623
     43 H7         -1.5600   -3.0662    0.2246 H         1 <0>         0.1282
     44 H8         -0.5897   -5.2723    0.7247 H         1 <0>         0.1251
     45 H9          3.0471   -3.4054    1.9413 H         1 <0>         0.1282
     46 H10         2.0880   -1.1962    1.4330 H         1 <0>         0.1314
     47 H11         2.5392   -5.7447    2.5324 H         1 <0>         0.0874
     48 H12         1.0777   -6.5302    1.8879 H         1 <0>         0.0902
     49 H13         4.2476   -5.8249   -0.7541 H         1 <0>         0.0866
     50 H14         4.1437   -4.8476    0.7300 H         1 <0>         0.0738
     51 H15         4.7554   -6.8346    2.0813 H         1 <0>         0.0690
     52 H16         4.8592   -7.8120    0.5973 H         1 <0>         0.0747
     53 H17         6.5198   -5.3115    1.1439 H         1 <0>         0.0868
     54 H18         8.6700   -5.6178    2.1160 H         1 <0>         0.1203
     55 H19        10.1954   -7.0533    3.4104 H         1 <0>         0.1213
     56 H20         9.7363   -9.4633    3.6207 H         1 <0>         0.1204
     57 H21         7.7514  -10.4376    2.5372 H         1 <0>         0.1208
     58 H22         6.2215   -9.0006    1.2497 H         1 <0>         0.1207
     59 H23         6.2698   -8.5020   -0.8100 H         1 <0>         0.1174
     60 H24         6.8421   -8.6429   -3.2007 H         1 <0>         0.1192
     61 H25         7.6647   -6.6494   -4.3893 H         1 <0>         0.1190
     62 H26         7.9142   -4.5149   -3.1873 H         1 <0>         0.1199
     63 H27         7.3339   -4.3720   -0.7986 H         1 <0>         0.1189
     64 H28         0.4528   -7.9241    0.7745 H         1 <0>         0.0897
     65 H29         0.0021   -6.6412   -0.3741 H         1 <0>         0.0924
     66 H30         1.0874  -10.4781   -1.8828 H         1 <0>         0.0652
     67 H31         2.0664   -9.6100   -0.6760 H         1 <0>         0.0605
     68 H32         0.5605  -10.4212   -0.1835 H         1 <0>         0.0505
     69 H33        -1.4670   -9.3609   -0.2549 H         1 <0>         0.0631
     70 H34        -1.7896   -7.9441   -1.2830 H         1 <0>         0.0603
     71 H35        -1.8036  -11.5841   -1.1586 H         1 <0>         0.0509
     72 H36        -1.4199  -11.8863   -2.8703 H         1 <0>         0.0499
     73 H37        -0.1609  -11.2750   -1.7705 H         1 <0>         0.0801
     74 H38        -3.4162   -8.7092   -2.8259 H         1 <0>         0.0527
     75 H39        -3.4093  -10.3927   -3.4039 H         1 <0>         0.0537
     76 H40        -3.6494  -10.0464   -1.6745 H         1 <0>         0.0530
     77 H41         0.1817   -9.4139   -3.4711 H         1 <0>         0.0649
     78 H42        -1.1720  -10.0233   -4.4530 H         1 <0>         0.0513
     79 H43        -1.1789   -8.3398   -3.8750 H         1 <0>         0.0524
@<TRIPOS>BOND
     1    1    2 1
     2    1   38 1
     3    1   39 1
     4    1   40 1
     5    2    3 1
     6    2   41 1
     7    2   42 1
     8    3    4 1
     9    4    9 ar
    10    4    5 ar
    11    5    6 ar
    12    5   43 1
    13    6    7 ar
    14    6   44 1
    15    7    8 ar
    16    7   10 1
    17    8    9 ar
    18    8   45 1
    19    9   46 1
    20   10   11 1
    21   10   47 1
    22   10   48 1
    23   11   12 1
    24   11   27 am
    25   12   13 1
    26   12   49 1
    27   12   50 1
    28   13   14 1
    29   13   51 1
    30   13   52 1
    31   14   15 1
    32   14   21 1
    33   14   53 1
    34   15   20 ar
    35   15   16 ar
    36   16   17 ar
    37   16   54 1
    38   17   18 ar
    39   17   55 1
    40   18   19 ar
    41   18   56 1
    42   19   20 ar
    43   19   57 1
    44   20   58 1
    45   21   26 ar
    46   21   22 ar
    47   22   23 ar
    48   22   59 1
    49   23   24 ar
    50   23   60 1
    51   24   25 ar
    52   24   61 1
    53   25   26 ar
    54   25   62 1
    55   26   63 1
    56   27   28 2
    57   27   29 1
    58   29   30 1
    59   29   64 1
    60   29   65 1
    61   30   31 1
    62   30   32 1
    63   30   33 1
    64   32   66 1
    65   32   67 1
    66   32   68 1
    67   33   34 1
    68   33   69 1
    69   33   70 1
    70   34   35 1
    71   34   36 1
    72   34   37 1
    73   35   71 1
    74   35   72 1
    75   35   73 1
    76   36   74 1
    77   36   75 1
    78   36   76 1
    79   37   77 1
    80   37   78 1
    81   37   79 1
@<TRIPOS>MOLECULE
ZINC35798931
   74    76     0     0     0
SMALL
USER_CHARGES

@<TRIPOS>ATOM
      1 C1         -1.7832    1.2795    1.8337 C.3       1 <0>        -0.1531
      2 C2         -1.5348   -0.2087    1.5798 C.3       1 <0>        -0.1250
      3 C3         -0.2600   -0.6441    2.3051 C.3       1 <0>        -0.1207
      4 C4         -0.0116   -2.1323    2.0512 C.3       1 <0>        -0.1028
      5 C5          1.3107   -2.5467    2.6998 C.3       1 <0>        -0.1061
      6 H1          1.2805   -2.3172    3.7649 H         1 <0>         0.0905
      7 C6          2.4619   -1.7803    2.0454 C.3       1 <0>        -0.1179
      8 C7          2.4508   -2.0337    0.5366 C.3       1 <0>        -0.1524
      9 C8          1.5209   -4.0269    2.5106 C.2       1 <0>         0.5281
     10 O1          0.7922   -4.6531    1.7704 O.2       1 <0>        -0.5270
     11 N1          2.5185   -4.6548    3.1640 N.am      1 <0>        -0.5874
     12 C9          3.3497   -3.9149    4.1168 C.3       1 <0>         0.0935
     13 C10         2.6516   -3.8732    5.4776 C.3       1 <0>         0.0603
     14 H2          1.6452   -3.4700    5.3645 H         1 <0>         0.0833
     15 C11         3.4612   -2.9941    6.4548 C.3       1 <0>        -0.1503
     16 C12         3.3384   -3.7830    7.7869 C.3       1 <0>        -0.1556
     17 C13         3.3253   -5.2417    7.2647 C.3       1 <0>         0.0472
     18 O2          2.5871   -5.1926    6.0313 O.3       1 <0>        -0.3726
     19 C14         2.7717   -6.0772    2.9213 C.3       1 <0>         0.0987
     20 C15         3.7574   -6.2263    1.7911 C.2       1 <0>         0.5039
     21 O3          4.2043   -5.2414    1.2423 O.2       1 <0>        -0.5193
     22 N2          4.1422   -7.4541    1.3901 N.am      1 <0>        -0.6013
     23 C16         5.1003   -7.5991    0.2914 C.3       1 <0>         0.1512
     24 C17         6.4926   -7.7306    0.8531 C.ar      1 <0>        -0.1060
     25 C18         7.2589   -6.6012    1.0724 C.ar      1 <0>        -0.0960
     26 C19         8.5360   -6.7218    1.5875 C.ar      1 <0>        -0.1215
     27 C20         9.0465   -7.9718    1.8839 C.ar      1 <0>        -0.1156
     28 C21         8.2798   -9.1011    1.6654 C.ar      1 <0>        -0.1218
     29 C22         7.0012   -8.9802    1.1543 C.ar      1 <0>        -0.1095
     30 C23         3.6023   -8.6438    2.0530 C.3       1 <0>         0.1931
     31 C24         2.4158   -9.1559    1.2779 C.2       1 <0>        -0.1861
     32 C25         2.3681  -10.1254    0.3318 C.2       1 <0>        -0.1025
     33 C26         1.1536  -10.4332   -0.2520 C.2       1 <0>        -0.1601
     34 C27         0.0461   -9.7564    0.1389 C.2       1 <0>        -0.1650
     35 S1          0.7068   -8.6484    1.3730 S.3       1 <0>         0.0603
     36 C28         3.6206  -10.8564   -0.0779 C.3       1 <0>        -0.1060
     37 H3         -0.9376    1.8577    1.4610 H         1 <0>         0.0531
     38 H4         -2.6914    1.5896    1.3170 H         1 <0>         0.0532
     39 H5         -1.8973    1.4513    2.9040 H         1 <0>         0.0528
     40 H6         -2.3803   -0.7869    1.9525 H         1 <0>         0.0609
     41 H7         -1.4207   -0.3806    0.5095 H         1 <0>         0.0614
     42 H8          0.5856   -0.0659    1.9324 H         1 <0>         0.0658
     43 H9         -0.3741   -0.4722    3.3754 H         1 <0>         0.0603
     44 H10        -0.8259   -2.7152    2.4817 H         1 <0>         0.0662
     45 H11         0.0375   -2.3145    0.9776 H         1 <0>         0.0763
     46 H12         2.3428   -0.7136    2.2356 H         1 <0>         0.0760
     47 H13         3.4091   -2.1205    2.4640 H         1 <0>         0.0714
     48 H14         2.4566   -3.1074    0.3484 H         1 <0>         0.0602
     49 H15         1.5539   -1.5934    0.1008 H         1 <0>         0.0573
     50 H16         3.3338   -1.5810    0.0856 H         1 <0>         0.0538
     51 H17         4.3149   -4.4110    4.2187 H         1 <0>         0.0841
     52 H18         3.5004   -2.8980    3.7544 H         1 <0>         0.1019
     53 H19         4.5025   -2.9227    6.1408 H         1 <0>         0.0813
     54 H20         3.0142   -2.0043    6.5476 H         1 <0>         0.0865
     55 H21         4.1998   -3.6038    8.4304 H         1 <0>         0.0850
     56 H22         2.4086   -3.5418    8.3021 H         1 <0>         0.0797
     57 H23         4.3429   -5.5880    7.0838 H         1 <0>         0.0604
     58 H24         2.8240   -5.8948    7.9790 H         1 <0>         0.0863
     59 H25         3.1814   -6.5323    3.8231 H         1 <0>         0.1095
     60 H26         1.8376   -6.5725    2.6565 H         1 <0>         0.1121
     61 H27         4.8567   -8.4896   -0.2880 H         1 <0>         0.0870
     62 H28         5.0499   -6.7213   -0.3529 H         1 <0>         0.0955
     63 H29         6.8600   -5.6246    0.8408 H         1 <0>         0.1254
     64 H30         9.1350   -5.8395    1.7582 H         1 <0>         0.1212
     65 H31        10.0445   -8.0661    2.2857 H         1 <0>         0.1212
     66 H32         8.6789  -10.0777    1.8967 H         1 <0>         0.1223
     67 H33         6.4008   -9.8622    0.9871 H         1 <0>         0.1198
     68 H34         4.3701   -9.4165    2.0945 H         1 <0>         0.1036
     69 H35         3.2912   -8.3860    3.0653 H         1 <0>         0.0957
     70 H36         1.0881  -11.2012   -1.0085 H         1 <0>         0.1336
     71 H37        -0.9724   -9.8628   -0.2043 H         1 <0>         0.1855
     72 H38         3.7003  -11.7853    0.4868 H         1 <0>         0.0721
     73 H39         3.5778  -11.0816   -1.1435 H         1 <0>         0.0684
     74 H40         4.4897  -10.2311    0.1267 H         1 <0>         0.0650
@<TRIPOS>BOND
     1    1    2 1
     2    1   37 1
     3    1   38 1
     4    1   39 1
     5    2    3 1
     6    2   40 1
     7    2   41 1
     8    3    4 1
     9    3   42 1
    10    3   43 1
    11    4    5 1
    12    4   44 1
    13    4   45 1
    14    5    6 1
    15    5    7 1
    16    5    9 1
    17    7    8 1
    18    7   46 1
    19    7   47 1
    20    8   48 1
    21    8   49 1
    22    8   50 1
    23    9   10 2
    24    9   11 am
    25   11   12 1
    26   11   19 1
    27   12   13 1
    28   12   51 1
    29   12   52 1
    30   13   14 1
    31   13   18 1
    32   13   15 1
    33   15   16 1
    34   15   53 1
    35   15   54 1
    36   16   17 1
    37   16   55 1
    38   16   56 1
    39   17   18 1
    40   17   57 1
    41   17   58 1
    42   19   20 1
    43   19   59 1
    44   19   60 1
    45   20   21 2
    46   20   22 am
    47   22   23 1
    48   22   30 1
    49   23   24 1
    50   23   61 1
    51   23   62 1
    52   24   29 ar
    53   24   25 ar
    54   25   26 ar
    55   25   63 1
    56   26   27 ar
    57   26   64 1
    58   27   28 ar
    59   27   65 1
    60   28   29 ar
    61   28   66 1
    62   29   67 1
    63   30   31 1
    64   30   68 1
    65   30   69 1
    66   31   35 1
    67   31   32 2
    68   32   33 1
    69   32   36 1
    70   33   34 2
    71   33   70 1
    72   34   35 1
    73   34   71 1
    74   36   72 1
    75   36   73 1
    76   36   74 1
@<TRIPOS>MOLECULE
ZINC40006197
   66    68     0     0     0
SMALL
USER_CHARGES

@<TRIPOS>ATOM
      1 C1          2.1253    0.7550   -2.5460 C.3       1 <0>        -0.1532
      2 C2          1.5034   -0.5059   -3.1495 C.3       1 <0>        -0.1240
      3 C3          1.7614   -1.6956   -2.2227 C.3       1 <0>        -0.1199
      4 C4          1.1395   -2.9565   -2.8262 C.3       1 <0>        -0.1135
      5 C5          1.3975   -4.1462   -1.8995 C.3       1 <0>        -0.1009
      6 H1          2.4677   -4.2360   -1.7129 H         1 <0>         0.0841
      7 C6          0.6653   -3.9283   -0.5739 C.3       1 <0>        -0.1142
      8 C7          1.0233   -5.0547    0.3977 C.3       1 <0>        -0.1563
      9 C8          0.8857   -5.4278   -2.5602 C.3       1 <0>         0.0838
     10 N1          1.6430   -5.6799   -3.7887 N.am      1 <0>        -0.5164
     11 C9          1.1561   -5.2624   -4.9451 C.2       1 <0>         0.5463
     12 O1          0.0935   -4.6731   -5.0161 O.2       1 <0>        -0.4539
     13 C10         1.9670   -5.5468   -6.1459 C.2       1 <0>        -0.2509
     14 C11         1.7239   -5.2425   -7.4463 C.2       1 <0>         0.0974
     15 C12         2.6059   -5.7619   -8.4991 C.ar      1 <0>        -0.1013
     16 C13         3.5860   -6.7125   -8.1887 C.ar      1 <0>        -0.0724
     17 C14         4.4120   -7.1977   -9.1786 C.ar      1 <0>        -0.1746
     18 C15         4.2757   -6.7468  -10.4847 C.ar      1 <0>         0.1384
     19 C16         3.3023   -5.8004  -10.8023 C.ar      1 <0>         0.1045
     20 C17         2.4658   -5.3123   -9.8179 C.ar      1 <0>        -0.1321
     21 O2          3.1728   -5.3619  -12.0831 O.3       1 <0>        -0.2994
     22 C18         2.1548   -4.3918  -12.3370 C.3       1 <0>         0.0505
     23 C19         2.1609   -4.0226  -13.8217 C.3       1 <0>        -0.1529
     24 O3          5.0937   -7.2290  -11.4564 O.3       1 <0>        -0.2887
     25 C20         6.0692   -8.1960  -11.0623 C.3       1 <0>         0.0960
     26 C21         6.8781   -8.6120  -12.2638 C.ar      1 <0>        -0.0948
     27 C22         6.4640   -9.6784  -13.0399 C.ar      1 <0>        -0.0798
     28 C23         7.2054  -10.0604  -14.1421 C.ar      1 <0>        -0.1133
     29 C24         8.3622   -9.3753  -14.4685 C.ar      1 <0>        -0.0231
     30 C25         8.7761   -8.3081  -13.6914 C.ar      1 <0>        -0.1133
     31 C26         8.0308   -7.9235  -12.5927 C.ar      1 <0>        -0.0797
     32 Cl1         9.2943   -9.8549  -15.8523 Cl        1 <0>        -0.0637
     33 S1          3.3576   -6.4009   -5.4162 S.3       1 <0>         0.0745
     34 C27         2.8236   -6.3275   -3.7139 C.2       1 <0>         0.2601
     35 S2          3.6168   -6.9349   -2.3237 S.2       1 <0>        -0.3404
     36 H2          1.6780    0.9500   -1.5713 H         1 <0>         0.0542
     37 H3          3.1995    0.6107   -2.4305 H         1 <0>         0.0533
     38 H4          1.9415    1.6026   -3.2062 H         1 <0>         0.0537
     39 H5          0.4291   -0.3616   -3.2650 H         1 <0>         0.0611
     40 H6          1.9506   -0.7009   -4.1242 H         1 <0>         0.0574
     41 H7          2.8356   -1.8399   -2.1072 H         1 <0>         0.0600
     42 H8          1.3142   -1.5006   -1.2480 H         1 <0>         0.0675
     43 H9          0.0653   -2.8122   -2.9417 H         1 <0>         0.0697
     44 H10         1.5867   -3.1515   -3.8009 H         1 <0>         0.0500
     45 H11         0.9643   -2.9712   -0.1466 H         1 <0>         0.0738
     46 H12        -0.4106   -3.9278   -0.7489 H         1 <0>         0.0648
     47 H13         0.4689   -4.9230    1.3268 H         1 <0>         0.0559
     48 H14         0.7633   -6.0150   -0.0476 H         1 <0>         0.0559
     49 H15         2.0929   -5.0286    0.6060 H         1 <0>         0.0596
     50 H16         1.0146   -6.2660   -1.8755 H         1 <0>         0.1130
     51 H17        -0.1712   -5.3150   -2.8016 H         1 <0>         0.1053
     52 H18         0.8817   -4.6185   -7.7065 H         1 <0>         0.1634
     53 H19         3.6946   -7.0648   -7.1736 H         1 <0>         0.1340
     54 H20         5.1678   -7.9306   -8.9380 H         1 <0>         0.1474
     55 H21         1.7085   -4.5825  -10.0635 H         1 <0>         0.1475
     56 H22         1.1828   -4.8067  -12.0698 H         1 <0>         0.0642
     57 H23         2.3457   -3.5000  -11.7400 H         1 <0>         0.0642
     58 H24         1.3844   -3.2826  -14.0154 H         1 <0>         0.0806
     59 H25         3.1329   -3.6078  -14.0889 H         1 <0>         0.0679
     60 H26         1.9700   -4.9144  -14.4187 H         1 <0>         0.0679
     61 H27         6.7299   -7.7608  -10.3125 H         1 <0>         0.0791
     62 H28         5.5676   -9.0679  -10.6424 H         1 <0>         0.0789
     63 H29         5.5611  -10.2134  -12.7848 H         1 <0>         0.1353
     64 H30         6.8820  -10.8938  -14.7481 H         1 <0>         0.1380
     65 H31         9.6793   -7.7731  -13.9455 H         1 <0>         0.1381
     66 H32         8.3513   -7.0874  -11.9888 H         1 <0>         0.1354
@<TRIPOS>BOND
     1    1    2 1
     2    1   36 1
     3    1   37 1
     4    1   38 1
     5    2    3 1
     6    2   39 1
     7    2   40 1
     8    3    4 1
     9    3   41 1
    10    3   42 1
    11    4    5 1
    12    4   43 1
    13    4   44 1
    14    5    6 1
    15    5    7 1
    16    5    9 1
    17    7    8 1
    18    7   45 1
    19    7   46 1
    20    8   47 1
    21    8   48 1
    22    8   49 1
    23    9   10 1
    24    9   50 1
    25    9   51 1
    26   10   34 1
    27   10   11 am
    28   11   12 2
    29   11   13 1
    30   13   14 2
    31   13   33 1
    32   14   15 1
    33   14   52 1
    34   15   20 ar
    35   15   16 ar
    36   16   17 ar
    37   16   53 1
    38   17   18 ar
    39   17   54 1
    40   18   19 ar
    41   18   24 1
    42   19   20 ar
    43   19   21 1
    44   20   55 1
    45   21   22 1
    46   22   23 1
    47   22   56 1
    48   22   57 1
    49   23   58 1
    50   23   59 1
    51   23   60 1
    52   24   25 1
    53   25   26 1
    54   25   61 1
    55   25   62 1
    56   26   31 ar
    57   26   27 ar
    58   27   28 ar
    59   27   63 1
    60   28   29 ar
    61   28   64 1
    62   29   30 ar
    63   29   32 1
    64   30   31 ar
    65   30   65 1
    66   31   66 1
    67   33   34 1
    68   34   35 2
@<TRIPOS>MOLECULE
ZINC03846298
   86    87     0     0     0
SMALL
USER_CHARGES
bis(2-isopropyl-5-methyl-cyclohexyl) 2,4-diacetyl-3-methyl-pentanedioate
@<TRIPOS>ATOM
      1 C1         -2.0890   -2.1713    1.0463 C.3       1 <0>        -0.1572
      2 C2         -3.1298   -1.6362    2.0320 C.3       1 <0>        -0.0891
      3 H1         -2.6522   -0.9418    2.7233 H         1 <0>         0.0697
      4 C3         -3.7354   -2.8016    2.8168 C.3       1 <0>        -0.1157
      5 C4         -4.4057   -3.7763    1.8465 C.3       1 <0>        -0.1181
      6 C5         -5.5111   -3.0506    1.0770 C.3       1 <0>        -0.0778
      7 H2         -6.2526   -2.6694    1.7792 H         1 <0>         0.0902
      8 C6         -4.9055   -1.8852    0.2921 C.3       1 <0>         0.0952
      9 H3         -5.6930   -1.3682   -0.2561 H         1 <0>         0.0905
     10 C7         -4.2352   -0.9105    1.2625 C.3       1 <0>        -0.1332
     11 O1         -3.9178   -2.3930   -0.6433 O.3       1 <0>        -0.3307
     12 C8         -3.7869   -1.7371   -1.8070 C.2       1 <0>         0.4729
     13 O2         -4.4024   -0.7148   -1.9969 O.2       1 <0>        -0.4815
     14 C9         -2.8724   -2.2758   -2.8768 C.3       1 <0>        -0.1245
     15 H4         -2.8315   -3.2727   -2.8094 H         1 <0>         0.1149
     16 C10        -3.4091   -1.8793   -4.2537 C.3       1 <0>        -0.0546
     17 C11        -4.7955   -2.4937   -4.4569 C.3       1 <0>        -0.1616
     18 C12        -2.4598   -2.3928   -5.3382 C.3       1 <0>        -0.1228
     19 H5         -1.5320   -2.0717   -5.1483 H         1 <0>         0.1098
     20 C13        -2.4776   -3.8996   -5.3491 C.2       1 <0>         0.3479
     21 O3         -3.3479   -4.4890   -5.9436 O.2       1 <0>        -0.4015
     22 C14        -1.4092   -4.6710   -4.6179 C.3       1 <0>        -0.1974
     23 C15        -2.9054   -1.8755   -6.6817 C.2       1 <0>         0.4646
     24 O4         -3.7773   -2.4487   -7.2909 O.2       1 <0>        -0.4717
     25 O5         -2.3336   -0.7780   -7.2016 O.3       1 <0>        -0.3300
     26 C16        -2.8845   -0.2748   -8.4473 C.3       1 <0>         0.0966
     27 H6         -3.9450   -0.5209   -8.5012 H         1 <0>         0.0876
     28 C17        -2.1511   -0.9180   -9.6259 C.3       1 <0>        -0.1332
     29 C18        -0.6625   -0.5725   -9.5502 C.3       1 <0>        -0.0884
     30 H7         -0.1400   -1.0307  -10.3900 H         1 <0>         0.0684
     31 C19        -0.4879    0.9464   -9.6084 C.3       1 <0>        -0.1150
     32 C20        -1.2214    1.5896   -8.4297 C.3       1 <0>        -0.1187
     33 C21        -2.7099    1.2441   -8.5054 C.3       1 <0>        -0.0761
     34 H8         -3.1235    1.6218   -9.4405 H         1 <0>         0.0885
     35 C22        -3.4433    1.8873   -7.3267 C.3       1 <0>        -0.0937
     36 C23        -3.2723    3.4065   -7.3873 C.3       1 <0>        -0.1481
     37 C24        -4.9312    1.5382   -7.4000 C.3       1 <0>        -0.1516
     38 C25        -0.0820   -1.1027   -8.2377 C.3       1 <0>        -0.1547
     39 C26        -1.4909   -1.7026   -2.6921 C.2       1 <0>         0.3569
     40 O6         -1.1970   -0.6548   -3.2156 O.2       1 <0>        -0.4165
     41 C27        -0.4763   -2.4370   -1.8541 C.3       1 <0>        -0.1981
     42 C28        -6.1814   -4.0253    0.1067 C.3       1 <0>        -0.0931
     43 C29        -6.7870   -5.1907    0.8915 C.3       1 <0>        -0.1491
     44 C30        -7.2869   -3.2995   -0.6629 C.3       1 <0>        -0.1545
     45 H9         -2.5177   -2.9966    0.4778 H         1 <0>         0.0856
     46 H10        -1.2158   -2.5233    1.5955 H         1 <0>         0.0500
     47 H11        -1.7922   -1.3752    0.3635 H         1 <0>         0.0432
     48 H12        -2.9478   -3.3187    3.3651 H         1 <0>         0.0653
     49 H13        -4.4768   -2.4204    3.5190 H         1 <0>         0.0615
     50 H14        -3.6642   -4.1575    1.1443 H         1 <0>         0.0751
     51 H15        -4.8371   -4.6066    2.4057 H         1 <0>         0.0686
     52 H16        -4.9766   -0.5293    1.9646 H         1 <0>         0.0816
     53 H17        -3.8037   -0.0802    0.7033 H         1 <0>         0.0690
     54 H18        -3.4799   -0.7935   -4.3172 H         1 <0>         0.1164
     55 H19        -4.7246   -3.5795   -4.3934 H         1 <0>         0.0668
     56 H20        -5.4718   -2.1279   -3.6842 H         1 <0>         0.0667
     57 H21        -5.1779   -2.2113   -5.4378 H         1 <0>         0.0791
     58 H22        -0.7742   -4.0317   -4.1842 H         1 <0>         0.0717
     59 H23        -1.8712   -5.2978   -3.8552 H         1 <0>         0.1025
     60 H24        -0.8666   -5.2990   -5.3245 H         1 <0>         0.1036
     61 H25        -2.2755   -2.0000   -9.5845 H         1 <0>         0.0687
     62 H26        -2.5647   -0.5402  -10.5610 H         1 <0>         0.0800
     63 H27        -0.9015    1.3242  -10.5435 H         1 <0>         0.0610
     64 H28         0.5725    1.1926   -9.5545 H         1 <0>         0.0644
     65 H29        -1.0970    2.6717   -8.4711 H         1 <0>         0.0678
     66 H30        -0.8078    1.2119   -7.4946 H         1 <0>         0.0760
     67 H31        -3.0277    1.5119   -6.3916 H         1 <0>         0.0773
     68 H32        -3.6880    3.7819   -8.3224 H         1 <0>         0.0535
     69 H33        -3.7949    3.8647   -6.5476 H         1 <0>         0.0546
     70 H34        -2.2124    3.6552   -7.3351 H         1 <0>         0.0589
     71 H35        -5.0614    0.4676   -7.2418 H         1 <0>         0.0507
     72 H36        -5.4717    2.0878   -6.6294 H         1 <0>         0.0574
     73 H37        -5.3204    1.8105   -8.3811 H         1 <0>         0.0550
     74 H38        -0.4684   -0.5142   -7.4056 H         1 <0>         0.0864
     75 H39        -0.3690   -2.1463   -8.1088 H         1 <0>         0.0412
     76 H40         1.0049   -1.0253   -8.2637 H         1 <0>         0.0477
     77 H41        -0.9005   -3.2486   -1.4524 H         1 <0>         0.0804
     78 H42         0.3630   -2.7382   -2.4809 H         1 <0>         0.1039
     79 H43        -0.1194   -1.7823   -1.0590 H         1 <0>         0.1026
     80 H44        -5.4400   -4.4065   -0.5955 H         1 <0>         0.0753
     81 H45        -5.9995   -5.7077    1.4398 H         1 <0>         0.0594
     82 H46        -7.5285   -4.8095    1.5937 H         1 <0>         0.0544
     83 H47        -7.2646   -5.8851    0.2003 H         1 <0>         0.0552
     84 H48        -6.8554   -2.4693   -1.2220 H         1 <0>         0.0518
     85 H49        -7.7644   -3.9939   -1.3541 H         1 <0>         0.0578
     86 H50        -8.0283   -2.9184    0.0393 H         1 <0>         0.0565
@<TRIPOS>BOND
     1    1    2 1
     2    1   45 1
     3    1   46 1
     4    1   47 1
     5    2    3 1
     6    2   10 1
     7    2    4 1
     8    4    5 1
     9    4   48 1
    10    4   49 1
    11    5    6 1
    12    5   50 1
    13    5   51 1
    14    6    7 1
    15    6    8 1
    16    6   42 1
    17    8    9 1
    18    8   10 1
    19    8   11 1
    20   10   52 1
    21   10   53 1
    22   11   12 1
    23   12   13 2
    24   12   14 1
    25   14   15 1
    26   14   16 1
    27   14   39 1
    28   16   17 1
    29   16   18 1
    30   16   54 1
    31   17   55 1
    32   17   56 1
    33   17   57 1
    34   18   19 1
    35   18   20 1
    36   18   23 1
    37   20   21 2
    38   20   22 1
    39   22   58 1
    40   22   59 1
    41   22   60 1
    42   23   24 2
    43   23   25 1
    44   25   26 1
    45   26   27 1
    46   26   33 1
    47   26   28 1
    48   28   29 1
    49   28   61 1
    50   28   62 1
    51   29   30 1
    52   29   31 1
    53   29   38 1
    54   31   32 1
    55   31   63 1
    56   31   64 1
    57   32   33 1
    58   32   65 1
    59   32   66 1
    60   33   34 1
    61   33   35 1
    62   35   36 1
    63   35   37 1
    64   35   67 1
    65   36   68 1
    66   36   69 1
    67   36   70 1
    68   37   71 1
    69   37   72 1
    70   37   73 1
    71   38   74 1
    72   38   75 1
    73   38   76 1
    74   39   40 2
    75   39   41 1
    76   41   77 1
    77   41   78 1
    78   41   79 1
    79   42   43 1
    80   42   44 1
    81   42   80 1
    82   43   81 1
    83   43   82 1
    84   43   83 1
    85   44   84 1
    86   44   85 1
    87   44   86 1
@<TRIPOS>MOLECULE
ZINC16458856
   77    79     0     0     0
SMALL
USER_CHARGES
N-[2-[[1-[(2-chlorophenyl)methyl]pyrrol-2-yl]methyl-isobutyl-amino]-2-oxo-ethyl]-3-phenyl-N-sec-butyl-propanamide
@<TRIPOS>ATOM
      1 C1          2.5630    4.3159    7.1566 C.3       1 <0>        -0.1465
      2 C2          3.2147    4.3194    5.7723 C.3       1 <0>        -0.1432
      3 C3          2.1307    4.4335    4.6986 C.3       1 <0>         0.1555
      4 H1          1.5381    5.3313    4.8745 H         1 <0>         0.0797
      5 C4          2.7864    4.5175    3.3188 C.3       1 <0>        -0.1685
      6 N1          1.2613    3.2558    4.7553 N.am      1 <0>        -0.5891
      7 C5         -0.1593    3.4088    5.0791 C.3       1 <0>         0.0891
      8 C6         -0.9324    3.7053    3.8199 C.2       1 <0>         0.4994
      9 O1         -0.3711    3.6859    2.7450 O.2       1 <0>        -0.5094
     10 N2         -2.2475    3.9919    3.8884 N.am      1 <0>        -0.6004
     11 C7         -2.9000    4.1307    5.1927 C.3       1 <0>         0.1830
     12 C8         -2.8580    5.5739    5.6244 C.2       1 <0>        -0.0183
     13 C9         -2.7788    6.6421    4.8052 C.2       1 <0>        -0.1707
     14 C10        -2.7676    7.7949    5.6152 C.2       1 <0>        -0.1995
     15 C11        -2.8318    7.3868    6.8988 C.2       1 <0>         0.0043
     16 N3         -2.8875    6.0246    6.9108 N.pl3     1 <0>        -0.4338
     17 C12        -2.9656    5.1840    8.1081 C.3       1 <0>         0.1413
     18 C13        -4.3963    4.7706    8.3392 C.ar      1 <0>        -0.1076
     19 C14        -4.8484    3.5520    7.8685 C.ar      1 <0>        -0.0921
     20 C15        -6.1606    3.1729    8.0799 C.ar      1 <0>        -0.1129
     21 C16        -7.0216    4.0118    8.7630 C.ar      1 <0>        -0.0960
     22 C17        -6.5707    5.2301    9.2345 C.ar      1 <0>        -0.1094
     23 C18        -5.2558    5.6080    9.0273 C.ar      1 <0>        -0.0152
     24 Cl1        -4.6867    7.1351    9.6255 Cl        1 <0>        -0.0612
     25 C19        -3.0245    4.1647    2.6585 C.3       1 <0>         0.1160
     26 C20        -3.7103    2.8451    2.2989 C.3       1 <0>        -0.1090
     27 C21        -4.6318    3.0604    1.0967 C.3       1 <0>        -0.1463
     28 C22        -2.6506    1.7987    1.9482 C.3       1 <0>        -0.1390
     29 C23         1.7683    2.0314    4.5096 C.2       1 <0>         0.5254
     30 O2          2.9590    1.8942    4.3240 O.2       1 <0>        -0.5237
     31 C24         0.8558    0.8329    4.4653 C.3       1 <0>        -0.1361
     32 C25         1.6549   -0.4011    4.0414 C.3       1 <0>        -0.0643
     33 C26         0.7701   -1.6193    4.1069 C.ar      1 <0>        -0.0827
     34 C27         0.6977   -2.3590    5.2725 C.ar      1 <0>        -0.1170
     35 C28        -0.1176   -3.4736    5.3341 C.ar      1 <0>        -0.1184
     36 C29        -0.8526   -3.8544    4.2270 C.ar      1 <0>        -0.1240
     37 C30        -0.7758   -3.1180    3.0597 C.ar      1 <0>        -0.1173
     38 C31         0.0354   -2.0003    2.9997 C.ar      1 <0>        -0.1147
     39 H2          2.0069    5.2425    7.2988 H         1 <0>         0.0493
     40 H3          1.8825    3.4680    7.2357 H         1 <0>         0.0490
     41 H4          3.3352    4.2346    7.9215 H         1 <0>         0.0540
     42 H5          3.8951    5.1673    5.6933 H         1 <0>         0.0702
     43 H6          3.7708    3.3928    5.6302 H         1 <0>         0.0867
     44 H7          3.3133    3.5865    3.1097 H         1 <0>         0.0768
     45 H8          2.0195    4.6790    2.5613 H         1 <0>         0.0629
     46 H9          3.4936    5.3468    3.3025 H         1 <0>         0.0596
     47 H10        -0.5316    2.4867    5.5254 H         1 <0>         0.1064
     48 H11        -0.2847    4.2303    5.7844 H         1 <0>         0.1050
     49 H12        -3.9372    3.8043    5.1166 H         1 <0>         0.0943
     50 H13        -2.3787    3.5165    5.9269 H         1 <0>         0.0789
     51 H14        -2.7347    6.6185    3.7263 H         1 <0>         0.1311
     52 H15        -2.7131    8.8173    5.2714 H         1 <0>         0.1345
     53 H16        -2.8375    8.0284    7.7676 H         1 <0>         0.1582
     54 H17        -2.3487    4.2962    7.9696 H         1 <0>         0.0973
     55 H18        -2.6059    5.7455    8.9704 H         1 <0>         0.1061
     56 H19        -4.1762    2.8962    7.3351 H         1 <0>         0.1308
     57 H20        -6.5135    2.2210    7.7117 H         1 <0>         0.1334
     58 H21        -8.0467    3.7147    8.9285 H         1 <0>         0.1356
     59 H22        -7.2433    5.8851    9.7684 H         1 <0>         0.1368
     60 H23        -3.7790    4.9365    2.8108 H         1 <0>         0.0785
     61 H24        -2.3597    4.4616    1.8474 H         1 <0>         0.0905
     62 H25        -4.2972    2.4972    3.1489 H         1 <0>         0.0687
     63 H26        -4.0449    3.4084    0.2466 H         1 <0>         0.0576
     64 H27        -5.1204    2.1203    0.8404 H         1 <0>         0.0583
     65 H28        -5.3868    3.8059    1.3465 H         1 <0>         0.0558
     66 H29        -2.0018    2.1875    1.1633 H         1 <0>         0.0599
     67 H30        -2.0554    1.5736    2.8332 H         1 <0>         0.0462
     68 H31        -3.1395    0.8896    1.5983 H         1 <0>         0.0514
     69 H32         0.4269    0.6662    5.4534 H         1 <0>         0.0905
     70 H33         0.0555    1.0119    3.7473 H         1 <0>         0.0916
     71 H34         2.0149   -0.2679    3.0212 H         1 <0>         0.0788
     72 H35         2.5040   -0.5322    4.7121 H         1 <0>         0.0831
     73 H36         1.2751   -2.0638    6.1361 H         1 <0>         0.1209
     74 H37        -0.1773   -4.0492    6.2460 H         1 <0>         0.1213
     75 H38        -1.4867   -4.7274    4.2740 H         1 <0>         0.1205
     76 H39        -1.3498   -3.4156    2.1947 H         1 <0>         0.1212
     77 H40         0.0955   -1.4249    2.0877 H         1 <0>         0.1208
@<TRIPOS>BOND
     1    1    2 1
     2    1   39 1
     3    1   40 1
     4    1   41 1
     5    2    3 1
     6    2   42 1
     7    2   43 1
     8    3    4 1
     9    3    5 1
    10    3    6 1
    11    5   44 1
    12    5   45 1
    13    5   46 1
    14    6    7 1
    15    6   29 am
    16    7    8 1
    17    7   47 1
    18    7   48 1
    19    8    9 2
    20    8   10 am
    21   10   11 1
    22   10   25 1
    23   11   12 1
    24   11   49 1
    25   11   50 1
    26   12   16 1
    27   12   13 2
    28   13   14 1
    29   13   51 1
    30   14   15 2
    31   14   52 1
    32   15   16 1
    33   15   53 1
    34   16   17 1
    35   17   18 1
    36   17   54 1
    37   17   55 1
    38   18   23 ar
    39   18   19 ar
    40   19   20 ar
    41   19   56 1
    42   20   21 ar
    43   20   57 1
    44   21   22 ar
    45   21   58 1
    46   22   23 ar
    47   22   59 1
    48   23   24 1
    49   25   26 1
    50   25   60 1
    51   25   61 1
    52   26   27 1
    53   26   28 1
    54   26   62 1
    55   27   63 1
    56   27   64 1
    57   27   65 1
    58   28   66 1
    59   28   67 1
    60   28   68 1
    61   29   30 2
    62   29   31 1
    63   31   32 1
    64   31   69 1
    65   31   70 1
    66   32   33 1
    67   32   71 1
    68   32   72 1
    69   33   38 ar
    70   33   34 ar
    71   34   35 ar
    72   34   73 1
    73   35   36 ar
    74   35   74 1
    75   36   37 ar
    76   36   75 1
    77   37   38 ar
    78   37   76 1
    79   38   77 1
@<TRIPOS>MOLECULE
ZINC34859547
   78    81     0     0     0
SMALL
USER_CHARGES

@<TRIPOS>ATOM
      1 C1         -0.0351    1.5260   -0.0371 C.3       1 <0>        -0.1525
      2 C2         -0.0095   -0.0038   -0.0330 C.3       1 <0>        -0.1226
      3 C3          0.7078   -0.5052   -1.2880 C.3       1 <0>        -0.1389
      4 C4          0.7334   -2.0350   -1.2840 C.3       1 <0>         0.1120
      5 N1          1.4202   -2.5151   -2.4856 N.am      1 <0>        -0.5973
      6 C5          2.8685   -2.7351   -2.4630 C.3       1 <0>         0.0957
      7 C6          3.1547   -4.1526   -2.0392 C.2       1 <0>         0.4954
      8 O1          2.2459   -4.8774   -1.6934 O.2       1 <0>        -0.4886
      9 N2          4.4207   -4.6150   -2.0446 N.am      1 <0>        -0.6087
     10 C7          5.5305   -3.7079   -2.3475 C.3       1 <0>         0.1457
     11 C8          6.1143   -3.1815   -1.0618 C.ar      1 <0>        -0.1083
     12 C9          5.6901   -1.9667   -0.5565 C.ar      1 <0>        -0.1091
     13 C10         6.2256   -1.4838    0.6229 C.ar      1 <0>        -0.1162
     14 C11         7.1849   -2.2158    1.2972 C.ar      1 <0>        -0.1145
     15 C12         7.6085   -3.4310    0.7923 C.ar      1 <0>        -0.1170
     16 C13         7.0699   -3.9159   -0.3848 C.ar      1 <0>        -0.1050
     17 C14         4.6869   -6.0246   -1.7475 C.3       1 <0>         0.1837
     18 C15         4.6578   -6.8217   -3.0261 C.2       1 <0>        -0.3070
     19 C16         5.8004   -7.0842   -3.6862 C.2       1 <0>         0.1390
     20 O2          5.8359   -7.7852   -4.8243 O.3       1 <0>        -0.2220
     21 C17         4.7237   -8.2856   -5.4000 C.ar      1 <0>         0.1298
     22 C18         4.7948   -9.0109   -6.5834 C.ar      1 <0>        -0.1347
     23 C19         3.6438   -9.5125   -7.1523 C.ar      1 <0>        -0.0615
     24 C20         2.4087   -9.3019   -6.5560 C.ar      1 <0>        -0.1121
     25 C21         2.3163   -8.5854   -5.3831 C.ar      1 <0>        -0.0325
     26 C22         3.4731   -8.0734   -4.7978 C.ar      1 <0>        -0.2114
     27 C23         3.4249   -7.3053   -3.5385 C.2       1 <0>         0.4149
     28 O3          2.3707   -7.0911   -2.9649 O.2       1 <0>        -0.4256
     29 C24         1.1627   -9.8591   -7.1948 C.3       1 <0>        -0.1144
     30 C25         0.7198   -2.7545   -3.6119 C.2       1 <0>         0.5224
     31 O4          1.2884   -3.1519   -4.6067 O.2       1 <0>        -0.5358
     32 C26        -0.7700   -2.5282   -3.6352 C.3       1 <0>        -0.1370
     33 C27        -1.3165   -2.8725   -5.0221 C.3       1 <0>        -0.0957
     34 C28        -2.8290   -2.6428   -5.0457 C.3       1 <0>        -0.0921
     35 C29        -3.5340   -3.6718   -4.1381 C.3       1 <0>        -0.1228
     36 C30        -4.8434   -4.0102   -4.8932 C.3       1 <0>        -0.1260
     37 C31        -4.3907   -4.0210   -6.3744 C.3       1 <0>        -0.1257
     38 C32        -3.3737   -2.8648   -6.4676 C.3       1 <0>        -0.1214
     39 H1          0.9863    1.9064   -0.0482 H         1 <0>         0.0535
     40 H2         -0.5636    1.8782   -0.9229 H         1 <0>         0.0542
     41 H3         -0.5461    1.8832    0.8570 H         1 <0>         0.0556
     42 H4          0.5191   -0.3560    0.8528 H         1 <0>         0.0639
     43 H5         -1.0309   -0.3843   -0.0219 H         1 <0>         0.0649
     44 H6          0.1792   -0.1530   -2.1738 H         1 <0>         0.0667
     45 H7          1.7292   -0.1248   -1.2992 H         1 <0>         0.0654
     46 H8          1.2620   -2.3872   -0.3982 H         1 <0>         0.0794
     47 H9         -0.2880   -2.4154   -1.2728 H         1 <0>         0.0836
     48 H10         3.2775   -2.5639   -3.4587 H         1 <0>         0.1087
     49 H11         3.3298   -2.0446   -1.7570 H         1 <0>         0.1031
     50 H12         6.2991   -4.2466   -2.9018 H         1 <0>         0.0866
     51 H13         5.1654   -2.8751   -2.9486 H         1 <0>         0.0899
     52 H14         4.9405   -1.3948   -1.0833 H         1 <0>         0.1192
     53 H15         5.8946   -0.5344    1.0174 H         1 <0>         0.1235
     54 H16         7.6038   -1.8382    2.2182 H         1 <0>         0.1229
     55 H17         8.3583   -4.0027    1.3189 H         1 <0>         0.1237
     56 H18         7.3981   -4.8670   -0.7774 H         1 <0>         0.1204
     57 H19         5.6684   -6.1189   -1.2828 H         1 <0>         0.0854
     58 H20         3.9246   -6.4026   -1.0662 H         1 <0>         0.1017
     59 H21         6.7291   -6.7123   -3.2793 H         1 <0>         0.1955
     60 H22         5.7505   -9.1809   -7.0569 H         1 <0>         0.1433
     61 H23         3.7039  -10.0752   -8.0721 H         1 <0>         0.1401
     62 H24         1.3543   -8.4215   -4.9203 H         1 <0>         0.1395
     63 H25         0.9743  -10.8615   -6.8101 H         1 <0>         0.0741
     64 H26         0.3152   -9.2149   -6.9607 H         1 <0>         0.0700
     65 H27         1.2973   -9.9041   -8.2755 H         1 <0>         0.0707
     66 H28        -1.2458   -3.1645   -2.8889 H         1 <0>         0.0950
     67 H29        -0.9823   -1.4831   -3.4101 H         1 <0>         0.0923
     68 H30        -0.8407   -2.2362   -5.7684 H         1 <0>         0.0681
     69 H31        -1.1042   -3.9177   -5.2472 H         1 <0>         0.0700
     70 H32        -3.0579   -1.6307   -4.7120 H         1 <0>         0.0712
     71 H33        -2.9185   -4.5640   -4.0231 H         1 <0>         0.0674
     72 H34        -3.7569   -3.2331   -3.1655 H         1 <0>         0.0636
     73 H35        -5.2181   -4.9899   -4.5966 H         1 <0>         0.0644
     74 H36        -5.5963   -3.2402   -4.7249 H         1 <0>         0.0655
     75 H37        -3.9135   -4.9696   -6.6206 H         1 <0>         0.0642
     76 H38        -5.2389   -3.8371   -7.0338 H         1 <0>         0.0631
     77 H39        -3.8677   -1.9607   -6.8236 H         1 <0>         0.0625
     78 H40        -2.5605   -3.1362   -7.1408 H         1 <0>         0.0653
@<TRIPOS>BOND
     1    1    2 1
     2    1   39 1
     3    1   40 1
     4    1   41 1
     5    2    3 1
     6    2   42 1
     7    2   43 1
     8    3    4 1
     9    3   44 1
    10    3   45 1
    11    4    5 1
    12    4   46 1
    13    4   47 1
    14    5    6 1
    15    5   30 am
    16    6    7 1
    17    6   48 1
    18    6   49 1
    19    7    8 2
    20    7    9 am
    21    9   10 1
    22    9   17 1
    23   10   11 1
    24   10   50 1
    25   10   51 1
    26   11   16 ar
    27   11   12 ar
    28   12   13 ar
    29   12   52 1
    30   13   14 ar
    31   13   53 1
    32   14   15 ar
    33   14   54 1
    34   15   16 ar
    35   15   55 1
    36   16   56 1
    37   17   18 1
    38   17   57 1
    39   17   58 1
    40   18   27 1
    41   18   19 2
    42   19   20 1
    43   19   59 1
    44   20   21 1
    45   21   26 ar
    46   21   22 ar
    47   22   23 ar
    48   22   60 1
    49   23   24 ar
    50   23   61 1
    51   24   25 ar
    52   24   29 1
    53   25   26 ar
    54   25   62 1
    55   26   27 1
    56   27   28 2
    57   29   63 1
    58   29   64 1
    59   29   65 1
    60   30   31 2
    61   30   32 1
    62   32   33 1
    63   32   66 1
    64   32   67 1
    65   33   34 1
    66   33   68 1
    67   33   69 1
    68   34   38 1
    69   34   35 1
    70   34   70 1
    71   35   36 1
    72   35   71 1
    73   35   72 1
    74   36   37 1
    75   36   73 1
    76   36   74 1
    77   37   38 1
    78   37   75 1
    79   37   76 1
    80   38   77 1
    81   38   78 1
@<TRIPOS>MOLECULE
ZINC35752145
   80    82     0     0     0
SMALL
USER_CHARGES

@<TRIPOS>ATOM
      1 C1         -0.9914    2.4732   -0.0321 C.3       1 <0>        -0.1543
      2 C2         -1.2426    0.9654    0.0332 C.3       1 <0>        -0.1436
      3 C3         -0.5093    0.2758   -1.1191 C.3       1 <0>         0.1522
      4 H1         -0.8347    0.7063   -2.0662 H         1 <0>         0.0806
      5 C4         -0.8274   -1.2207   -1.1031 C.3       1 <0>        -0.1662
      6 N1          0.9345    0.4699   -0.9648 N.am      1 <0>        -0.5927
      7 C5          1.7244    1.0059   -2.0761 C.3       1 <0>         0.0885
      8 C6          1.9259    2.4866   -1.8809 C.2       1 <0>         0.4960
      9 O1          1.5433    3.0215   -0.8619 O.2       1 <0>        -0.5028
     10 N2          2.5313    3.2163   -2.8387 N.am      1 <0>        -0.5998
     11 C7          2.8881    2.5956   -4.1168 C.3       1 <0>         0.1814
     12 C8          1.7802    2.8236   -5.1127 C.2       1 <0>        -0.0155
     13 C9          0.4787    3.0160   -4.8170 C.2       1 <0>        -0.1730
     14 C10        -0.2093    3.1884   -6.0343 C.2       1 <0>        -0.1986
     15 C11         0.6980    3.0949   -7.0275 C.2       1 <0>         0.0043
     16 N3          1.9219    2.8768   -6.4677 N.pl3     1 <0>        -0.4325
     17 C12         3.1806    2.7215   -7.2010 C.3       1 <0>         0.1416
     18 C13         3.4946    1.2556   -7.3550 C.ar      1 <0>        -0.1075
     19 C14         4.3536    0.6357   -6.4668 C.ar      1 <0>        -0.0929
     20 C15         4.6417   -0.7088   -6.6078 C.ar      1 <0>        -0.1134
     21 C16         4.0711   -1.4344   -7.6372 C.ar      1 <0>        -0.0959
     22 C17         3.2123   -0.8157   -8.5257 C.ar      1 <0>        -0.1093
     23 C18         2.9190    0.5289   -8.3816 C.ar      1 <0>        -0.0152
     24 Cl1         1.8350    1.3052   -9.4934 Cl        1 <0>        -0.0611
     25 C19         2.8325    4.6303   -2.6017 C.3       1 <0>         0.1190
     26 C20         4.2793    4.7705   -2.1242 C.3       1 <0>        -0.1088
     27 C21         4.6148    6.2521   -1.9416 C.3       1 <0>        -0.1459
     28 C22         4.4490    4.0410   -0.7901 C.3       1 <0>        -0.1407
     29 C23         1.5362    0.1553    0.1994 C.2       1 <0>         0.5280
     30 O2          0.9023   -0.3795    1.0844 O.2       1 <0>        -0.5260
     31 C24         2.9964    0.4680    0.4016 C.3       1 <0>        -0.1458
     32 C25         3.3988    0.1193    1.8360 C.3       1 <0>        -0.0934
     33 C26         4.8500    0.5407    2.0753 C.3       1 <0>        -0.0918
     34 C27         4.9663    2.0846    2.1171 C.3       1 <0>        -0.1225
     35 C28         6.2621    2.3078    2.9357 C.3       1 <0>        -0.1252
     36 C29         6.2181    1.2115    4.0201 C.3       1 <0>        -0.1257
     37 C30         5.3202    0.0879    3.4730 C.3       1 <0>        -0.1209
     38 H2          0.0420    2.6817    0.2448 H         1 <0>         0.0882
     39 H3         -1.1746    2.8285   -1.0462 H         1 <0>         0.0396
     40 H4         -1.6627    2.9836    0.6585 H         1 <0>         0.0412
     41 H5         -0.8745    0.5765    0.9826 H         1 <0>         0.0900
     42 H6         -2.3121    0.7713   -0.0488 H         1 <0>         0.0627
     43 H7         -1.8860   -1.3695   -1.3161 H         1 <0>         0.0637
     44 H8         -0.2296   -1.7273   -1.8609 H         1 <0>         0.0527
     45 H9         -0.5931   -1.6315   -0.1210 H         1 <0>         0.0736
     46 H10         2.6937    0.5082   -2.1062 H         1 <0>         0.1031
     47 H11         1.1972    0.8315   -3.0140 H         1 <0>         0.1110
     48 H12         3.8104    3.0396   -4.4914 H         1 <0>         0.0838
     49 H13         3.0326    1.5249   -3.9729 H         1 <0>         0.0901
     50 H14         0.0436    3.0341   -3.8286 H         1 <0>         0.1275
     51 H15        -1.2688    3.3630   -6.1506 H         1 <0>         0.1344
     52 H16         0.4914    3.1819   -8.0840 H         1 <0>         0.1582
     53 H17         3.0858    3.1782   -8.1862 H         1 <0>         0.1052
     54 H18         3.9846    3.2095   -6.6502 H         1 <0>         0.0992
     55 H19         4.7998    1.2020   -5.6628 H         1 <0>         0.1314
     56 H20         5.3131   -1.1926   -5.9139 H         1 <0>         0.1335
     57 H21         4.2969   -2.4848   -7.7471 H         1 <0>         0.1356
     58 H22         2.7668   -1.3826   -9.3299 H         1 <0>         0.1367
     59 H23         2.6995    5.1902   -3.5274 H         1 <0>         0.0740
     60 H24         2.1588    5.0226   -1.8399 H         1 <0>         0.0914
     61 H25         4.9501    4.3346   -2.8646 H         1 <0>         0.0671
     62 H26         3.9440    6.6879   -1.2013 H         1 <0>         0.0579
     63 H27         5.6455    6.3519   -1.6014 H         1 <0>         0.0582
     64 H28         4.4939    6.7718   -2.8921 H         1 <0>         0.0545
     65 H29         4.1481    2.9996   -0.9046 H         1 <0>         0.0503
     66 H30         5.4935    4.0856   -0.4819 H         1 <0>         0.0518
     67 H31         3.8262    4.5180   -0.0333 H         1 <0>         0.0600
     68 H32         3.5937   -0.1189   -0.2962 H         1 <0>         0.0846
     69 H33         3.1687    1.5295    0.2238 H         1 <0>         0.0979
     70 H34         2.7478    0.6455    2.5341 H         1 <0>         0.0711
     71 H35         3.3026   -0.9556    1.9892 H         1 <0>         0.0679
     72 H36         5.4985    0.1281    1.3024 H         1 <0>         0.0715
     73 H37         5.0699    2.4916    1.1112 H         1 <0>         0.0668
     74 H38         4.1077    2.5231    2.6257 H         1 <0>         0.0676
     75 H39         7.1401    2.1825    2.3019 H         1 <0>         0.0625
     76 H40         6.2588    3.2972    3.3931 H         1 <0>         0.0628
     77 H41         7.2220    0.8299    4.2063 H         1 <0>         0.0608
     78 H42         5.7943    1.6134    4.9404 H         1 <0>         0.0619
     79 H43         4.4607   -0.0554    4.1278 H         1 <0>         0.0654
     80 H44         5.8884   -0.8389    3.3938 H         1 <0>         0.0616
@<TRIPOS>BOND
     1    1    2 1
     2    1   38 1
     3    1   39 1
     4    1   40 1
     5    2    3 1
     6    2   41 1
     7    2   42 1
     8    3    4 1
     9    3    5 1
    10    3    6 1
    11    5   43 1
    12    5   44 1
    13    5   45 1
    14    6    7 1
    15    6   29 am
    16    7    8 1
    17    7   46 1
    18    7   47 1
    19    8    9 2
    20    8   10 am
    21   10   11 1
    22   10   25 1
    23   11   12 1
    24   11   48 1
    25   11   49 1
    26   12   16 1
    27   12   13 2
    28   13   14 1
    29   13   50 1
    30   14   15 2
    31   14   51 1
    32   15   16 1
    33   15   52 1
    34   16   17 1
    35   17   18 1
    36   17   53 1
    37   17   54 1
    38   18   23 ar
    39   18   19 ar
    40   19   20 ar
    41   19   55 1
    42   20   21 ar
    43   20   56 1
    44   21   22 ar
    45   21   57 1
    46   22   23 ar
    47   22   58 1
    48   23   24 1
    49   25   26 1
    50   25   59 1
    51   25   60 1
    52   26   27 1
    53   26   28 1
    54   26   61 1
    55   27   62 1
    56   27   63 1
    57   27   64 1
    58   28   65 1
    59   28   66 1
    60   28   67 1
    61   29   30 2
    62   29   31 1
    63   31   32 1
    64   31   68 1
    65   31   69 1
    66   32   33 1
    67   32   70 1
    68   32   71 1
    69   33   37 1
    70   33   34 1
    71   33   72 1
    72   34   35 1
    73   34   73 1
    74   34   74 1
    75   35   36 1
    76   35   75 1
    77   35   76 1
    78   36   37 1
    79   36   77 1
    80   36   78 1
    81   37   79 1
    82   37   80 1
@<TRIPOS>MOLECULE
ZINC36596654
   75    76     0     0     0
SMALL
USER_CHARGES

@<TRIPOS>ATOM
      1 C1         -0.5668    0.0400   -0.7910 C.3       1 <0>        -0.1489
      2 C2         -0.7942   -1.3012   -0.0907 C.3       1 <0>        -0.1232
      3 C3          0.2394   -1.4763    1.0237 C.3       1 <0>        -0.0869
      4 C4          0.0945   -2.8473    1.6324 C.2       1 <0>        -0.1168
      5 C5          1.1435   -3.6215    1.7599 C.2       1 <0>        -0.1998
      6 C6          1.0208   -4.9461    2.4680 C.3       1 <0>         0.1457
      7 H1          1.3783   -5.7419    1.8146 H         1 <0>         0.1221
      8 C7          1.8476   -4.9208    3.7277 C.2       1 <0>         0.5004
      9 O1          1.3492   -5.2385    4.7867 O.2       1 <0>        -0.5034
     10 N1          3.1410   -4.5451    3.6774 N.am      1 <0>        -0.7216
     11 C8          3.9746   -4.6263    4.8793 C.3       1 <0>         0.1797
     12 C9          3.4739   -3.6189    5.9163 C.3       1 <0>        -0.1602
     13 C10         3.8947   -6.0392    5.4609 C.3       1 <0>        -0.2381
     14 C11         5.4258   -4.3056    4.5161 C.3       1 <0>        -0.1131
     15 C12         5.8313   -5.1089    3.2787 C.3       1 <0>        -0.0679
     16 C13         5.2541   -4.4442    2.0274 C.3       1 <0>        -0.1600
     17 C14         7.3573   -5.1514    3.1757 C.3       1 <0>        -0.1403
     18 C15         5.2881   -6.5345    3.3956 C.3       1 <0>        -0.1652
     19 N2         -0.3829   -5.1888    2.8101 N.am      1 <0>        -0.6054
     20 C16        -0.8146   -5.1418    4.2092 C.3       1 <0>         0.1972
     21 C17        -0.7402   -6.5243    4.8045 C.2       1 <0>        -0.0131
     22 C18         0.2844   -7.0171    5.5233 C.2       1 <0>        -0.1886
     23 C19        -0.0643   -8.3401    5.8798 C.2       1 <0>        -0.2316
     24 C20        -1.2812   -8.5765    5.3576 C.2       1 <0>        -0.0274
     25 O2         -1.6881   -7.4712    4.7123 O.3       1 <0>        -0.1669
     26 C21        -2.0585   -9.8617    5.4806 C.3       1 <0>        -0.0710
     27 C22        -1.2772   -5.4552    1.8375 C.2       1 <0>         0.5730
     28 O3         -2.4376   -5.6791    2.1233 O.2       1 <0>        -0.4929
     29 C23        -0.8480   -5.4751    0.4261 C.ar      1 <0>        -0.2803
     30 C24         0.4794   -5.1962    0.0914 C.ar      1 <0>        -0.0259
     31 C25         0.8738   -5.2163   -1.2287 C.ar      1 <0>        -0.1912
     32 C26        -0.0403   -5.5121   -2.2269 C.ar      1 <0>        -0.0104
     33 C27        -1.3551   -5.7891   -1.9102 C.ar      1 <0>        -0.2399
     34 C28        -1.7682   -5.7794   -0.5861 C.ar      1 <0>         0.3321
     35 O4         -3.0585   -6.0574   -0.2728 O.3       1 <0>        -0.6216
     36 N3          2.2804   -4.9202   -1.5819 N.pl3     1 <0>         0.0789
     37 O5          3.0802   -4.6614   -0.7130 O.2       1 <0>        -0.2264
     38 O6          2.6295   -4.9371   -2.7393 O.3       1 <0>        -0.2256
     39 H2          0.4638    0.0969   -1.1413 H         1 <0>         0.0521
     40 H3         -1.2445    0.1258   -1.6404 H         1 <0>         0.0530
     41 H4         -0.7578    0.8528   -0.0902 H         1 <0>         0.0508
     42 H5         -1.7966   -1.3225    0.3369 H         1 <0>         0.0633
     43 H6         -0.6901   -2.1106   -0.8132 H         1 <0>         0.0656
     44 H7          1.2419   -1.3665    0.6101 H         1 <0>         0.0658
     45 H8          0.0781   -0.7192    1.7911 H         1 <0>         0.0726
     46 H9         -0.8742   -3.1915    1.9634 H         1 <0>         0.1190
     47 H10         2.0963   -3.3106    1.3575 H         1 <0>         0.1333
     48 H11         3.5198   -4.2209    2.8454 H         1 <0>         0.4094
     49 H12         2.4721   -3.8997    6.2415 H         1 <0>         0.0744
     50 H13         4.1466   -3.6154    6.7739 H         1 <0>         0.0576
     51 H14         3.4461   -2.6238    5.4723 H         1 <0>         0.0530
     52 H15         4.4228   -6.7321    4.8058 H         1 <0>         0.1141
     53 H16         4.3542   -6.0518    6.4492 H         1 <0>         0.0541
     54 H17         2.8503   -6.3402    5.5420 H         1 <0>         0.0849
     55 H18         5.5206   -3.2404    4.3049 H         1 <0>         0.0689
     56 H19         6.0761   -4.5699    5.3500 H         1 <0>         0.0772
     57 H20         5.3184   -3.3608    2.1289 H         1 <0>         0.0596
     58 H21         5.8218   -4.7615    1.1527 H         1 <0>         0.0690
     59 H22         4.2107   -4.7367    1.9090 H         1 <0>         0.0722
     60 H23         7.7685   -5.6250    4.0672 H         1 <0>         0.0523
     61 H24         7.6461   -5.7238    2.2942 H         1 <0>         0.0566
     62 H25         7.7442   -4.1359    3.0925 H         1 <0>         0.0543
     63 H26         4.2045   -6.5022    3.5091 H         1 <0>         0.0870
     64 H27         5.5427   -7.0952    2.4962 H         1 <0>         0.0515
     65 H28         5.7301   -7.0216    4.2648 H         1 <0>         0.0629
     66 H29        -0.1631   -4.4700    4.7681 H         1 <0>         0.1381
     67 H30        -1.8411   -4.7788    4.2608 H         1 <0>         0.0748
     68 H31         1.1984   -6.5015    5.7785 H         1 <0>         0.1861
     69 H32         0.5320   -9.0288    6.4599 H         1 <0>         0.1352
     70 H33        -2.6152   -9.8614    6.4177 H         1 <0>         0.0747
     71 H34        -2.7533   -9.9475    4.6451 H         1 <0>         0.0730
     72 H35        -1.3690  -10.7059    5.4679 H         1 <0>         0.0806
     73 H36         1.1953   -4.9648    0.8662 H         1 <0>         0.1907
     74 H37         0.2776   -5.5257   -3.2590 H         1 <0>         0.1240
     75 H38        -2.0619   -6.0184   -2.6940 H         1 <0>         0.1231
@<TRIPOS>BOND
     1    1    2 1
     2    1   39 1
     3    1   40 1
     4    1   41 1
     5    2    3 1
     6    2   42 1
     7    2   43 1
     8    3    4 1
     9    3   44 1
    10    3   45 1
    11    4    5 2
    12    4   46 1
    13    5    6 1
    14    5   47 1
    15    6    7 1
    16    6    8 1
    17    6   19 1
    18    8    9 2
    19    8   10 am
    20   10   11 1
    21   10   48 1
    22   11   12 1
    23   11   13 1
    24   11   14 1
    25   12   49 1
    26   12   50 1
    27   12   51 1
    28   13   52 1
    29   13   53 1
    30   13   54 1
    31   14   15 1
    32   14   55 1
    33   14   56 1
    34   15   16 1
    35   15   17 1
    36   15   18 1
    37   16   57 1
    38   16   58 1
    39   16   59 1
    40   17   60 1
    41   17   61 1
    42   17   62 1
    43   18   63 1
    44   18   64 1
    45   18   65 1
    46   19   20 1
    47   19   27 am
    48   20   21 1
    49   20   66 1
    50   20   67 1
    51   21   25 1
    52   21   22 2
    53   22   23 1
    54   22   68 1
    55   23   24 2
    56   23   69 1
    57   24   25 1
    58   24   26 1
    59   26   70 1
    60   26   71 1
    61   26   72 1
    62   27   28 2
    63   27   29 1
    64   29   34 ar
    65   29   30 ar
    66   30   31 ar
    67   30   73 1
    68   31   32 ar
    69   31   36 1
    70   32   33 ar
    71   32   74 1
    72   33   34 ar
    73   33   75 1
    74   34   35 1
    75   36   37 2
    76   36   38 1
@<TRIPOS>MOLECULE
ZINC39899332
   69    72     0     0     0
SMALL
USER_CHARGES

@<TRIPOS>ATOM
      1 C1         -0.0187    1.5258    0.0104 C.3       1 <0>        -0.1529
      2 C2          0.0021   -0.0041    0.0020 C.3       1 <0>        -0.1241
      3 C3         -1.4333   -0.5336    0.0129 C.3       1 <0>        -0.1167
      4 C4         -1.4126   -2.0635    0.0045 C.3       1 <0>        -0.1190
      5 C5         -2.8479   -2.5931    0.0153 C.3       1 <0>         0.0634
      6 O1         -2.8286   -4.0219    0.0075 O.3       1 <0>        -0.3169
      7 C6         -4.0309   -4.6553    0.0155 C.ar      1 <0>         0.1425
      8 C7         -5.2054   -3.9166    0.0249 C.ar      1 <0>        -0.1997
      9 C8         -6.4262   -4.5628    0.0326 C.ar      1 <0>        -0.0794
     10 C9         -6.4785   -5.9447    0.0310 C.ar      1 <0>        -0.1199
     11 C10        -5.3097   -6.6829    0.0221 C.ar      1 <0>        -0.0228
     12 C11        -4.0861   -6.0413    0.0086 C.ar      1 <0>        -0.1068
     13 C12        -5.3703   -8.1887    0.0209 C.3       1 <0>         0.2643
     14 H1         -4.4221   -8.6008   -0.3245 H         1 <0>         0.0960
     15 C13        -5.6802   -8.6942    1.4034 C.2       1 <0>        -0.2018
     16 C14        -5.3079   -8.7716    2.7074 C.2       1 <0>         0.1905
     17 N1         -6.2707   -9.4989    3.3470 N.pl3     1 <0>        -0.3889
     18 N2         -7.1805   -9.8530    2.5106 N.2       1 <0>        -0.2313
     19 H2         -6.2683   -9.7163    4.2923 H         1 <0>         0.4458
     20 C15        -6.8982   -9.4042    1.3038 C.2       1 <0>        -0.0503
     21 C16        -7.3417   -9.3469   -0.1008 C.2       1 <0>         0.6171
     22 O2         -8.3578   -9.8593   -0.5285 O.2       1 <0>        -0.5282
     23 N3         -6.4640   -8.6482   -0.8430 N.am      1 <0>        -0.5987
     24 C17        -6.5807   -8.3870   -2.2798 C.3       1 <0>         0.1455
     25 C18        -5.8910   -9.5081   -3.0597 C.3       1 <0>        -0.1386
     26 C19        -6.0129   -9.2353   -4.5602 C.3       1 <0>         0.0674
     27 O3         -5.3688  -10.2825   -5.2886 O.3       1 <0>        -0.3815
     28 C20        -5.4251  -10.1232   -6.7076 C.3       1 <0>         0.0805
     29 C21        -4.1876  -10.7612   -7.3419 C.3       1 <0>        -0.1501
     30 C22        -6.6839  -10.8049   -7.2477 C.3       1 <0>        -0.1758
     31 C23        -4.0949   -8.1830    3.3163 C.ar      1 <0>        -0.2181
     32 C24        -3.1024   -9.0102    3.8410 C.ar      1 <0>        -0.0286
     33 C25        -1.9722   -8.4552    4.4077 C.ar      1 <0>        -0.1734
     34 C26        -1.8209   -7.0793    4.4573 C.ar      1 <0>        -0.0483
     35 C27        -2.7987   -6.2508    3.9401 C.ar      1 <0>        -0.2462
     36 C28        -3.9354   -6.7936    3.3633 C.ar      1 <0>         0.3064
     37 O4         -4.8943   -5.9796    2.8498 O.3       1 <0>        -0.6669
     38 Cl1        -0.7369   -9.4854    5.0607 Cl        1 <0>        -0.1266
     39 H3          1.0039    1.9031    0.0027 H         1 <0>         0.0528
     40 H4         -0.5459    1.8868   -0.8726 H         1 <0>         0.0527
     41 H5         -0.5289    1.8773    0.9072 H         1 <0>         0.0537
     42 H6          0.5123   -0.3556   -0.8948 H         1 <0>         0.0620
     43 H7          0.5293   -0.3651    0.8851 H         1 <0>         0.0635
     44 H8         -1.9435   -0.1821    0.9097 H         1 <0>         0.0647
     45 H9         -1.9605   -0.1726   -0.8702 H         1 <0>         0.0628
     46 H10        -0.9024   -2.4150   -0.8923 H         1 <0>         0.0708
     47 H11        -0.8854   -2.4246    0.8875 H         1 <0>         0.0742
     48 H12        -3.3581   -2.2415    0.9121 H         1 <0>         0.0590
     49 H13        -3.3751   -2.2320   -0.8677 H         1 <0>         0.0543
     50 H14        -5.1652   -2.8374    0.0265 H         1 <0>         0.1138
     51 H15        -7.3407   -3.9883    0.0403 H         1 <0>         0.1115
     52 H16        -7.4340   -6.4480    0.0371 H         1 <0>         0.1061
     53 H17        -3.1733   -6.6185   -0.0028 H         1 <0>         0.1184
     54 H18        -7.6340   -8.3460   -2.5572 H         1 <0>         0.0872
     55 H19        -6.1055   -7.4348   -2.5157 H         1 <0>         0.0880
     56 H20        -4.8377   -9.5491   -2.7822 H         1 <0>         0.0771
     57 H21        -6.3662  -10.4603   -2.8237 H         1 <0>         0.0772
     58 H22        -7.0662   -9.1943   -4.8377 H         1 <0>         0.0501
     59 H23        -5.5377   -8.2831   -4.7961 H         1 <0>         0.0513
     60 H24        -5.4530   -9.0616   -6.9532 H         1 <0>         0.0591
     61 H25        -4.1598  -11.8228   -7.0963 H         1 <0>         0.0630
     62 H26        -4.2306  -10.6397   -8.4243 H         1 <0>         0.0670
     63 H27        -3.2908  -10.2756   -6.9571 H         1 <0>         0.0616
     64 H28        -7.5656  -10.3504   -6.7958 H         1 <0>         0.0569
     65 H29        -6.7269  -10.6834   -8.3301 H         1 <0>         0.0629
     66 H30        -6.6561  -11.8665   -7.0020 H         1 <0>         0.0633
     67 H31        -3.2177  -10.0834    3.8045 H         1 <0>         0.1011
     68 H32        -0.9347   -6.6519    4.9026 H         1 <0>         0.1017
     69 H33        -2.6746   -5.1788    3.9820 H         1 <0>         0.1043
@<TRIPOS>BOND
     1    1    2 1
     2    1   39 1
     3    1   40 1
     4    1   41 1
     5    2    3 1
     6    2   42 1
     7    2   43 1
     8    3    4 1
     9    3   44 1
    10    3   45 1
    11    4    5 1
    12    4   46 1
    13    4   47 1
    14    5    6 1
    15    5   48 1
    16    5   49 1
    17    6    7 1
    18    7   12 ar
    19    7    8 ar
    20    8    9 ar
    21    8   50 1
    22    9   10 ar
    23    9   51 1
    24   10   11 ar
    25   10   52 1
    26   11   12 ar
    27   11   13 1
    28   12   53 1
    29   13   14 1
    30   13   23 1
    31   13   15 1
    32   15   20 1
    33   15   16 2
    34   16   31 1
    35   16   17 1
    36   17   19 1
    37   17   18 1
    38   18   20 2
    39   20   21 1
    40   21   22 2
    41   21   23 am
    42   23   24 1
    43   24   25 1
    44   24   54 1
    45   24   55 1
    46   25   26 1
    47   25   56 1
    48   25   57 1
    49   26   27 1
    50   26   58 1
    51   26   59 1
    52   27   28 1
    53   28   29 1
    54   28   30 1
    55   28   60 1
    56   29   61 1
    57   29   62 1
    58   29   63 1
    59   30   64 1
    60   30   65 1
    61   30   66 1
    62   31   36 ar
    63   31   32 ar
    64   32   33 ar
    65   32   67 1
    66   33   34 ar
    67   33   38 1
    68   34   35 ar
    69   34   68 1
    70   35   36 ar
    71   35   69 1
    72   36   37 1
@<TRIPOS>MOLECULE
ZINC13219594
   54    54     0     0     0
SMALL
USER_CHARGES
2-[3-[2-[[(1R)-1-methylheptyl]amino]-2-oxo-ethyl]sulfanyl-5-propyl-1,2,4-triazol-4-yl]acetic acid
@<TRIPOS>ATOM
      1 C1         -5.7433  -10.0717    8.1571 C.3       1 <0>        -0.1543
      2 C2         -4.3164   -9.6728    8.5389 C.3       1 <0>        -0.1250
      3 C3         -3.9663   -8.3376    7.8791 C.3       1 <0>        -0.1222
      4 C4         -2.5394   -7.9387    8.2608 C.3       1 <0>        -0.1193
      5 C5         -2.1892   -6.6034    7.6010 C.3       1 <0>        -0.1221
      6 C6         -0.7623   -6.2046    7.9828 C.3       1 <0>        -0.1261
      7 C7         -0.4122   -4.8693    7.3230 C.3       1 <0>         0.1420
      8 H1         -1.1593   -4.1232    7.5939 H         1 <0>         0.0899
      9 C8          0.9657   -4.4090    7.8030 C.3       1 <0>        -0.1660
     10 N1         -0.3922   -5.0343    5.8674 N.am      1 <0>        -0.7210
     11 C9         -0.6104   -3.9729    5.0659 C.2       1 <0>         0.5362
     12 O1         -0.8233   -2.8813    5.5496 O.2       1 <0>        -0.5203
     13 C10        -0.5898   -4.1426    3.5686 C.3       1 <0>        -0.1502
     14 S1         -0.9141   -2.5479    2.7762 S.3       1 <0>         0.0801
     15 C11        -0.8339   -3.0261    1.0822 C.2       1 <0>         0.1431
     16 N2         -0.5971   -4.2327    0.6220 N.2       1 <0>        -0.3076
     17 N3         -0.6104   -4.2202   -0.6631 N.2       1 <0>        -0.2975
     18 C12        -0.8594   -3.0167   -1.0961 C.2       1 <0>         0.1935
     19 N4         -1.0054   -2.2118   -0.0002 N.pl3     1 <0>        -0.4193
     20 C13        -1.2926   -0.7753    0.0102 C.3       1 <0>         0.0506
     21 C14         0.0021   -0.0041    0.0020 C.2       1 <0>         0.4577
     22 O2          1.0565   -0.5939   -0.0112 O.co2     1 <0>        -0.6094
     23 C15        -0.9644   -2.5903   -2.5377 C.3       1 <0>        -0.0262
     24 C16         0.4144   -2.1630   -3.0449 C.3       1 <0>        -0.1246
     25 C17         0.3078   -1.7301   -4.5085 C.3       1 <0>        -0.1458
     26 H2         -5.8151  -10.1717    7.0741 H         1 <0>         0.0539
     27 H3         -5.9927  -11.0230    8.6272 H         1 <0>         0.0521
     28 H4         -6.4385   -9.3046    8.4981 H         1 <0>         0.0532
     29 H5         -3.6211  -10.4400    8.1979 H         1 <0>         0.0599
     30 H6         -4.2445   -9.5728    9.6219 H         1 <0>         0.0593
     31 H7         -4.6615   -7.5705    8.2200 H         1 <0>         0.0609
     32 H8         -4.0381   -8.4376    6.7960 H         1 <0>         0.0618
     33 H9         -1.8441   -8.7058    7.9199 H         1 <0>         0.0609
     34 H10        -2.4675   -7.8387    9.3439 H         1 <0>         0.0604
     35 H11        -2.8845   -5.8363    7.9420 H         1 <0>         0.0634
     36 H12        -2.2611   -6.7035    6.5180 H         1 <0>         0.0645
     37 H13        -0.0671   -6.9717    7.6418 H         1 <0>         0.0687
     38 H14        -0.6905   -6.1045    9.0658 H         1 <0>         0.0784
     39 H15         1.7127   -5.1551    7.5322 H         1 <0>         0.0570
     40 H16         1.2151   -3.4577    7.3330 H         1 <0>         0.0639
     41 H17         0.9508   -4.2863    8.8860 H         1 <0>         0.0648
     42 H18        -0.2219   -5.9073    5.4806 H         1 <0>         0.4020
     43 H19        -1.3576   -4.8578    3.2734 H         1 <0>         0.1220
     44 H20         0.3881   -4.5105    3.2581 H         1 <0>         0.1239
     45 H21        -1.8592   -0.5245    0.9070 H         1 <0>         0.1013
     46 H22        -1.8762   -0.5150   -0.8728 H         1 <0>         0.1030
     47 H23        -1.3300   -3.4238   -3.1375 H         1 <0>         0.0928
     48 H24        -1.6571   -1.7527   -2.6193 H         1 <0>         0.0779
     49 H25         0.7799   -1.3295   -2.4452 H         1 <0>         0.0799
     50 H26         1.1071   -3.0006   -2.9633 H         1 <0>         0.0661
     51 H27        -0.0578   -2.5636   -5.1083 H         1 <0>         0.0518
     52 H28        -0.3850   -0.8925   -4.5901 H         1 <0>         0.0538
     53 H29         1.2901   -1.4257   -4.8698 H         1 <0>         0.0556
     54 O3         -0.0161    1.3381    0.0094 O.co2     1 <0>        -0.7493
@<TRIPOS>BOND
     1    1    2 1
     2    1   26 1
     3    1   27 1
     4    1   28 1
     5    2    3 1
     6    2   29 1
     7    2   30 1
     8    3    4 1
     9    3   31 1
    10    3   32 1
    11    4    5 1
    12    4   33 1
    13    4   34 1
    14    5    6 1
    15    5   35 1
    16    5   36 1
    17    6    7 1
    18    6   37 1
    19    6   38 1
    20    7    8 1
    21    7    9 1
    22    7   10 1
    23    9   39 1
    24    9   40 1
    25    9   41 1
    26   10   11 am
    27   10   42 1
    28   11   12 2
    29   11   13 1
    30   13   14 1
    31   13   43 1
    32   13   44 1
    33   14   15 1
    34   15   19 1
    35   15   16 2
    36   16   17 1
    37   17   18 2
    38   18   19 1
    39   18   23 1
    40   19   20 1
    41   20   21 1
    42   20   45 1
    43   20   46 1
    44   21   22 2
    45   21   54 1
    46   23   24 1
    47   23   47 1
    48   23   48 1
    49   24   25 1
    50   24   49 1
    51   24   50 1
    52   25   51 1
    53   25   52 1
    54   25   53 1
@<TRIPOS>MOLECULE
ZINC05758445
   65    64     0     0     0
SMALL
USER_CHARGES
[2-(6-methylheptoxy)-1-(6-methylheptoxymethyl)ethyl] hydrogen sulfate
@<TRIPOS>ATOM
      1 C1          8.9776    1.3306   -2.3524 C.3       1 <0>        -0.1519
      2 C2          8.9603    2.8366   -2.6220 C.3       1 <0>        -0.0991
      3 C3         10.1425    3.2076   -3.5196 C.3       1 <0>        -0.1482
      4 C4          7.6521    3.2149   -3.3192 C.3       1 <0>        -0.1143
      5 C5          6.4774    2.9597   -2.3728 C.3       1 <0>        -0.1227
      6 C6          5.1691    3.3380   -3.0700 C.3       1 <0>        -0.1151
      7 C7          3.9944    3.0828   -2.1235 C.3       1 <0>        -0.1166
      8 C8          2.6861    3.4611   -2.8208 C.3       1 <0>         0.0551
      9 O1          1.5890    3.2227   -1.9368 O.3       1 <0>        -0.3210
     10 C9          0.3131    3.5452   -2.4938 C.3       1 <0>         0.0373
     11 C10        -0.7811    3.2519   -1.4654 C.3       1 <0>         0.1289
     12 C11        -2.1331    3.7127   -2.0139 C.3       1 <0>         0.0698
     13 O2         -3.1362    3.5462   -1.0098 O.3       1 <0>        -0.3672
     14 C12        -4.4437    3.9493   -1.4221 C.3       1 <0>         0.0603
     15 C13        -5.4311    3.7281   -0.2744 C.3       1 <0>        -0.1236
     16 C14        -6.8311    4.1596   -0.7158 C.3       1 <0>        -0.1144
     17 C15        -7.8185    3.9384    0.4318 C.3       1 <0>        -0.1231
     18 C16        -9.2184    4.3699   -0.0096 C.3       1 <0>        -0.1146
     19 C17       -10.2058    4.1488    1.1380 C.3       1 <0>        -0.0990
     20 C18       -11.5790    4.6947    0.7417 C.3       1 <0>        -0.1486
     21 C19       -10.3179    2.6517    1.4330 C.3       1 <0>        -0.1519
     22 O3         -0.8262    1.8475   -1.2052 O.3       1 <0>        -0.7763
     23 S1         -0.0172    1.4168    0.0098 S.o2      1 <0>         2.7655
     24 O4          0.0021   -0.0041    0.0020 O.2       1 <0>        -1.0748
     25 O5          1.1718    2.1948    0.0027 O.2       1 <0>        -1.0546
     26 O6         -0.8028    1.8344    1.2447 O.3       1 <0>        -1.1091
     27 H1          8.1277    1.0639   -1.7071 H         1 <0>         0.0610
     28 H2          9.9182    1.0587   -1.8510 H         1 <0>         0.0506
     29 H3          8.8994    0.7866   -3.3053 H         1 <0>         0.0528
     30 H4          9.0385    3.3807   -1.6692 H         1 <0>         0.0690
     31 H5         10.1301    4.2903   -3.7134 H         1 <0>         0.0524
     32 H6         10.0643    2.6636   -4.4725 H         1 <0>         0.0528
     33 H7         11.0831    2.9356   -3.0182 H         1 <0>         0.0519
     34 H8          7.6774    4.2799   -3.5933 H         1 <0>         0.0593
     35 H9          7.5308    2.6054   -4.2269 H         1 <0>         0.0601
     36 H10         6.4521    1.8947   -2.0987 H         1 <0>         0.0670
     37 H11         6.5987    3.5692   -1.4651 H         1 <0>         0.0631
     38 H12         5.1944    4.4030   -3.3442 H         1 <0>         0.0585
     39 H13         5.0477    2.7285   -3.9776 H         1 <0>         0.0590
     40 H14         3.9691    2.0178   -1.8493 H         1 <0>         0.0743
     41 H15         4.1157    3.6923   -1.2159 H         1 <0>         0.0740
     42 H16         2.7114    4.5261   -3.0950 H         1 <0>         0.0384
     43 H17         2.5648    2.8516   -3.7285 H         1 <0>         0.0382
     44 H18         0.2888    4.6120   -2.7610 H         1 <0>         0.0609
     45 H19         0.1421    2.9376   -3.3946 H         1 <0>         0.0575
     46 H20        -0.5589    3.7290   -0.4995 H         1 <0>         0.0991
     47 H21        -2.0712    4.7736   -2.2980 H         1 <0>         0.0635
     48 H22        -2.3948    3.1113   -2.8970 H         1 <0>         0.0625
     49 H23        -4.4301    5.0151   -1.6939 H         1 <0>         0.0444
     50 H24        -4.7538    3.3528   -2.2928 H         1 <0>         0.0460
     51 H25        -5.4445    2.6623   -0.0026 H         1 <0>         0.0751
     52 H26        -5.1210    4.3246    0.5962 H         1 <0>         0.0732
     53 H27        -6.8176    5.2254   -0.9876 H         1 <0>         0.0605
     54 H28        -7.1412    3.5631   -1.5864 H         1 <0>         0.0614
     55 H29        -7.8320    2.8726    0.7036 H         1 <0>         0.0674
     56 H30        -7.5084    4.5349    1.3024 H         1 <0>         0.0633
     57 H31        -9.2049    5.4357   -0.2815 H         1 <0>         0.0598
     58 H32        -9.5285    3.7734   -0.8802 H         1 <0>         0.0606
     59 H33        -9.8478    4.6737    2.0359 H         1 <0>         0.0691
     60 H34       -12.2888    4.5357    1.5668 H         1 <0>         0.0523
     61 H35       -11.9370    4.1698   -0.1563 H         1 <0>         0.0530
     62 H36       -11.4984    5.7710    0.5296 H         1 <0>         0.0527
     63 H37       -11.0278    2.4927    2.2581 H         1 <0>         0.0511
     64 H38        -9.3306    2.2592    1.7180 H         1 <0>         0.0605
     65 H39       -10.6759    2.1269    0.5350 H         1 <0>         0.0530
@<TRIPOS>BOND
     1    1    2 1
     2    1   27 1
     3    1   28 1
     4    1   29 1
     5    2    3 1
     6    2    4 1
     7    2   30 1
     8    3   31 1
     9    3   32 1
    10    3   33 1
    11    4    5 1
    12    4   34 1
    13    4   35 1
    14    5    6 1
    15    5   36 1
    16    5   37 1
    17    6    7 1
    18    6   38 1
    19    6   39 1
    20    7    8 1
    21    7   40 1
    22    7   41 1
    23    8    9 1
    24    8   42 1
    25    8   43 1
    26    9   10 1
    27   10   11 1
    28   10   44 1
    29   10   45 1
    30   11   12 1
    31   11   22 1
    32   11   46 1
    33   12   13 1
    34   12   47 1
    35   12   48 1
    36   13   14 1
    37   14   15 1
    38   14   49 1
    39   14   50 1
    40   15   16 1
    41   15   51 1
    42   15   52 1
    43   16   17 1
    44   16   53 1
    45   16   54 1
    46   17   18 1
    47   17   55 1
    48   17   56 1
    49   18   19 1
    50   18   57 1
    51   18   58 1
    52   19   20 1
    53   19   21 1
    54   19   59 1
    55   20   60 1
    56   20   61 1
    57   20   62 1
    58   21   63 1
    59   21   64 1
    60   21   65 1
    61   22   23 1
    62   23   24 2
    63   23   25 2
    64   23   26 1
@<TRIPOS>MOLECULE
ZINC40054255
   69    71     0     0     0
SMALL
USER_CHARGES

@<TRIPOS>ATOM
      1 C1         -4.6003   -1.8923    0.5729 C.3       1 <0>        -0.1488
      2 C2         -3.2691   -2.6103    0.3422 C.3       1 <0>        -0.1246
      3 C3         -2.7262   -3.1200    1.6787 C.3       1 <0>         0.0593
      4 O1         -1.4828   -3.7906    1.4632 O.3       1 <0>        -0.3171
      5 C4         -0.8627   -4.3070    2.5567 C.ar      1 <0>         0.1112
      6 C5         -1.4439   -4.1751    3.8113 C.ar      1 <0>        -0.1951
      7 C6         -0.8175   -4.6980    4.9276 C.ar      1 <0>        -0.0985
      8 C7          0.3895   -5.3547    4.8028 C.ar      1 <0>        -0.1015
      9 C8          0.9814   -5.4928    3.5455 C.ar      1 <0>        -0.0961
     10 C9          0.3450   -4.9692    2.4188 C.ar      1 <0>        -0.1055
     11 C10         2.2749   -6.1960    3.4075 C.2       1 <0>         0.5021
     12 O2          2.7576   -6.3708    2.3045 O.2       1 <0>        -0.4686
     13 C11         2.9756   -6.6823    4.5996 C.2       1 <0>        -0.4989
     14 C12         3.2559   -7.9718    4.9016 C.2       1 <0>         0.2661
     15 C13         3.9735   -8.0230    6.1929 C.2       1 <0>         0.5124
     16 O3          4.3625   -9.0385    6.7347 O.2       1 <0>        -0.5337
     17 N1          4.1326   -6.7788    6.6794 N.am      1 <0>        -0.6103
     18 C14         3.5300   -5.8406    5.7252 C.3       1 <0>         0.2623
     19 H1          2.7267   -5.2834    6.2072 H         1 <0>         0.0735
     20 C15         4.5749   -4.8920    5.1966 C.ar      1 <0>        -0.0356
     21 C16         5.7853   -5.3815    4.7411 C.ar      1 <0>        -0.1170
     22 C17         6.7459   -4.5139    4.2556 C.ar      1 <0>        -0.0828
     23 C18         6.4987   -3.1549    4.2247 C.ar      1 <0>        -0.2132
     24 C19         5.2853   -2.6614    4.6810 C.ar      1 <0>         0.1231
     25 C20         4.3205   -3.5348    5.1622 C.ar      1 <0>        -0.1456
     26 O4          5.0398   -1.3250    4.6516 O.3       1 <0>        -0.3180
     27 C21         6.0762   -0.4861    4.1378 C.3       1 <0>         0.0594
     28 C22         5.6205    0.9737    4.1837 C.3       1 <0>        -0.1140
     29 C23         6.7302    1.8719    3.6335 C.3       1 <0>        -0.0942
     30 C24         6.2295    3.3160    3.5630 C.3       1 <0>        -0.1462
     31 C25         7.9492    1.7993    4.5554 C.3       1 <0>        -0.1529
     32 C26         4.7949   -6.4230    7.9368 C.3       1 <0>         0.1423
     33 C27         6.2847   -6.1880    7.6798 C.3       1 <0>        -0.1470
     34 C28         6.9764   -5.8164    8.9930 C.3       1 <0>         0.0814
     35 O5          8.3679   -5.5969    8.7530 O.3       1 <0>        -0.5722
     36 O6          2.9303   -9.0432    4.1426 O.3       1 <0>        -0.6499
     37 H2         -4.4467   -1.0501    1.2476 H         1 <0>         0.0567
     38 H3         -4.9871   -1.5292   -0.3792 H         1 <0>         0.0626
     39 H4         -5.3155   -2.5861    1.0148 H         1 <0>         0.0569
     40 H5         -3.4227   -3.4525   -0.3325 H         1 <0>         0.0733
     41 H6         -2.5539   -1.9165   -0.0997 H         1 <0>         0.0729
     42 H7         -2.5726   -2.2777    2.3534 H         1 <0>         0.0594
     43 H8         -3.4414   -3.8137    2.1206 H         1 <0>         0.0596
     44 H9         -2.3884   -3.6617    3.9153 H         1 <0>         0.1232
     45 H10        -1.2744   -4.5918    5.9005 H         1 <0>         0.1248
     46 H11         0.8763   -5.7614    5.6768 H         1 <0>         0.1361
     47 H12         0.7957   -5.0763    1.4432 H         1 <0>         0.1362
     48 H13         5.9808   -6.4434    4.7651 H         1 <0>         0.1187
     49 H14         7.6905   -4.8987    3.9005 H         1 <0>         0.1195
     50 H15         7.2497   -2.4775    3.8460 H         1 <0>         0.1195
     51 H16         3.3732   -3.1534    5.5135 H         1 <0>         0.1264
     52 H17         6.9743   -0.6056    4.7438 H         1 <0>         0.0611
     53 H18         6.2934   -0.7667    3.1072 H         1 <0>         0.0585
     54 H19         4.7224    1.0932    3.5777 H         1 <0>         0.0734
     55 H20         5.4034    1.2543    5.2143 H         1 <0>         0.0728
     56 H21         7.0091    1.5349    2.6352 H         1 <0>         0.0724
     57 H22         5.9507    3.6531    4.5613 H         1 <0>         0.0556
     58 H23         7.0201    3.9559    3.1710 H         1 <0>         0.0557
     59 H24         5.3611    3.3678    2.9063 H         1 <0>         0.0559
     60 H25         8.3059    0.7705    4.6056 H         1 <0>         0.0567
     61 H26         8.7398    2.4392    4.1634 H         1 <0>         0.0553
     62 H27         7.6703    2.1364    5.5537 H         1 <0>         0.0564
     63 H28         4.3476   -5.5137    8.3384 H         1 <0>         0.0758
     64 H29         4.6735   -7.2349    8.6538 H         1 <0>         0.0793
     65 H30         6.7320   -7.0972    7.2782 H         1 <0>         0.0727
     66 H31         6.4061   -5.3760    6.9628 H         1 <0>         0.0831
     67 H32         6.5291   -4.9071    9.3946 H         1 <0>         0.0440
     68 H33         6.8550   -6.6284    9.7100 H         1 <0>         0.0447
     69 H34         8.8703   -5.3569    9.5436 H         1 <0>         0.3748
@<TRIPOS>BOND
     1    1    2 1
     2    1   37 1
     3    1   38 1
     4    1   39 1
     5    2    3 1
     6    2   40 1
     7    2   41 1
     8    3    4 1
     9    3   42 1
    10    3   43 1
    11    4    5 1
    12    5   10 ar
    13    5    6 ar
    14    6    7 ar
    15    6   44 1
    16    7    8 ar
    17    7   45 1
    18    8    9 ar
    19    8   46 1
    20    9   10 ar
    21    9   11 1
    22   10   47 1
    23   11   12 2
    24   11   13 1
    25   13   18 1
    26   13   14 2
    27   14   15 1
    28   14   36 1
    29   15   16 2
    30   15   17 am
    31   17   18 1
    32   17   32 1
    33   18   19 1
    34   18   20 1
    35   20   25 ar
    36   20   21 ar
    37   21   22 ar
    38   21   48 1
    39   22   23 ar
    40   22   49 1
    41   23   24 ar
    42   23   50 1
    43   24   25 ar
    44   24   26 1
    45   25   51 1
    46   26   27 1
    47   27   28 1
    48   27   52 1
    49   27   53 1
    50   28   29 1
    51   28   54 1
    52   28   55 1
    53   29   30 1
    54   29   31 1
    55   29   56 1
    56   30   57 1
    57   30   58 1
    58   30   59 1
    59   31   60 1
    60   31   61 1
    61   31   62 1
    62   32   33 1
    63   32   63 1
    64   32   64 1
    65   33   34 1
    66   33   65 1
    67   33   66 1
    68   34   35 1
    69   34   67 1
    70   34   68 1
    71   35   69 1
@<TRIPOS>MOLECULE
ZINC40083049
   72    74     0     0     0
SMALL
USER_CHARGES

@<TRIPOS>ATOM
      1 C1         -0.4379    2.0200    0.2536 C.3       1 <0>        -0.1711
      2 C2         -0.2770    0.4995    0.1996 C.3       1 <0>         0.1238
      3 N1         -1.5985   -0.1325    0.2216 N.pl3     1 <0>        -0.6322
      4 C3         -2.2998   -0.4078   -1.0349 C.3       1 <0>         0.1236
      5 C4         -1.9230   -1.8041   -1.5339 C.3       1 <0>        -0.1726
      6 C5         -2.1899   -0.4726    1.4404 C.ar      1 <0>         0.2081
      7 C6         -1.5288   -0.2071    2.6329 C.ar      1 <0>        -0.1954
      8 C7         -2.1166   -0.5442    3.8363 C.ar      1 <0>        -0.0582
      9 C8         -3.3615   -1.1459    3.8550 C.ar      1 <0>        -0.1194
     10 C9         -4.0224   -1.4116    2.6697 C.ar      1 <0>        -0.0404
     11 C10        -3.4429   -1.0719    1.4630 C.ar      1 <0>        -0.2026
     12 C11        -3.9993   -1.5132    5.1700 C.3       1 <0>         0.2580
     13 H1         -3.4177   -1.1033    5.9957 H         1 <0>         0.0641
     14 C12        -4.0965   -3.0155    5.2986 C.2       1 <0>        -0.4796
     15 C13        -5.4117   -3.3136    5.4111 C.2       1 <0>         0.2793
     16 C14        -6.1988   -2.0636    5.3624 C.2       1 <0>         0.5109
     17 O1         -7.4097   -1.9987    5.4392 O.2       1 <0>        -0.5199
     18 N2         -5.3759   -1.0069    5.2221 N.am      1 <0>        -0.6076
     19 C15        -5.7815    0.3982    5.1362 C.3       1 <0>         0.1426
     20 C16        -6.0195    0.7717    3.6717 C.3       1 <0>         0.0367
     21 O2         -7.1282    0.0264    3.1643 O.3       1 <0>        -0.3555
     22 C17        -7.4365    0.3020    1.7964 C.3       1 <0>         0.0642
     23 C18        -8.6330   -0.5470    1.3622 C.3       1 <0>         0.0792
     24 O3         -9.7914   -0.1492    2.0984 O.3       1 <0>        -0.5630
     25 O4         -5.9247   -4.5583    5.5462 O.3       1 <0>        -0.6150
     26 C19        -2.9808   -3.9670    5.3009 C.2       1 <0>         0.4664
     27 O5         -3.2017   -5.1638    5.3032 O.2       1 <0>        -0.4919
     28 C20        -1.5897   -3.4733    5.3005 C.ar      1 <0>        -0.1333
     29 C21        -0.8210   -3.5439    4.1345 C.ar      1 <0>        -0.0403
     30 C22         0.4757   -3.0824    4.1384 C.ar      1 <0>        -0.2100
     31 C23         1.0217   -2.5466    5.2998 C.ar      1 <0>         0.1244
     32 C24         0.2610   -2.4750    6.4614 C.ar      1 <0>        -0.1563
     33 C25        -1.0389   -2.9287    6.4644 C.ar      1 <0>        -0.0212
     34 C26        -1.8647   -2.8444    7.7222 C.3       1 <0>        -0.1255
     35 O6          2.3005   -2.0928    5.2995 O.3       1 <0>        -0.3141
     36 C27         3.0255   -2.1968    4.0725 C.3       1 <0>         0.0880
     37 C28         4.4158   -1.6474    4.2624 C.2       1 <0>        -0.1516
     38 C29         5.4487   -2.3024    3.7931 C.2       1 <0>        -0.1765
     39 H2          0.5453    2.4902    0.2373 H         1 <0>         0.0588
     40 H3         -1.0152    2.3551   -0.6080 H         1 <0>         0.0524
     41 H4         -0.9584    2.2980    1.1701 H         1 <0>         0.0593
     42 H5          0.2435    0.2215   -0.7168 H         1 <0>         0.0659
     43 H6          0.3003    0.1643    1.0613 H         1 <0>         0.0727
     44 H7         -3.3759   -0.3595   -0.8685 H         1 <0>         0.0724
     45 H8         -2.0139    0.3340   -1.7806 H         1 <0>         0.0659
     46 H9         -0.8469   -1.8524   -1.7004 H         1 <0>         0.0526
     47 H10        -2.2090   -2.5459   -0.7882 H         1 <0>         0.0611
     48 H11        -2.4448   -2.0089   -2.4688 H         1 <0>         0.0592
     49 H12        -0.5562    0.2622    2.6190 H         1 <0>         0.1119
     50 H13        -1.6031   -0.3381    4.7639 H         1 <0>         0.1130
     51 H14        -4.9946   -1.8816    2.6878 H         1 <0>         0.1151
     52 H15        -3.9615   -1.2756    0.5378 H         1 <0>         0.1118
     53 H16        -6.7007    0.5463    5.7030 H         1 <0>         0.0835
     54 H17        -4.9945    1.0294    5.5488 H         1 <0>         0.0869
     55 H18        -6.2345    1.8378    3.5989 H         1 <0>         0.0458
     56 H19        -5.1285    0.5400    3.0882 H         1 <0>         0.0621
     57 H20        -7.6809    1.3584    1.6847 H         1 <0>         0.0474
     58 H21        -6.5748    0.0606    1.1740 H         1 <0>         0.0568
     59 H22        -8.8127   -0.4036    0.2967 H         1 <0>         0.0534
     60 H23        -8.4222   -1.5985    1.5569 H         1 <0>         0.0562
     61 H24       -10.5898   -0.6466    1.8742 H         1 <0>         0.3756
     62 H25        -1.2441   -3.9602    3.2322 H         1 <0>         0.1186
     63 H26         1.0702   -3.1369    3.2384 H         1 <0>         0.1192
     64 H27         0.6890   -2.0589    7.3614 H         1 <0>         0.1260
     65 H28        -1.8068   -3.7913    8.2589 H         1 <0>         0.0715
     66 H29        -1.4818   -2.0439    8.3552 H         1 <0>         0.0638
     67 H30        -2.9027   -2.6369    7.4621 H         1 <0>         0.0871
     68 H31         3.0860   -3.2433    3.7738 H         1 <0>         0.0649
     69 H32         2.5123   -1.6270    3.2978 H         1 <0>         0.0701
     70 H33         4.5607   -0.7136    4.7853 H         1 <0>         0.1185
     71 H34         5.3038   -3.2361    3.2701 H         1 <0>         0.0989
     72 H35         6.4451   -1.9086    3.9292 H         1 <0>         0.1059
@<TRIPOS>BOND
     1    1    2 1
     2    1   39 1
     3    1   40 1
     4    1   41 1
     5    2    3 1
     6    2   42 1
     7    2   43 1
     8    3    4 1
     9    3    6 1
    10    4    5 1
    11    4   44 1
    12    4   45 1
    13    5   46 1
    14    5   47 1
    15    5   48 1
    16    6   11 ar
    17    6    7 ar
    18    7    8 ar
    19    7   49 1
    20    8    9 ar
    21    8   50 1
    22    9   10 ar
    23    9   12 1
    24   10   11 ar
    25   10   51 1
    26   11   52 1
    27   12   13 1
    28   12   18 1
    29   12   14 1
    30   14   15 2
    31   14   26 1
    32   15   16 1
    33   15   25 1
    34   16   17 2
    35   16   18 am
    36   18   19 1
    37   19   20 1
    38   19   53 1
    39   19   54 1
    40   20   21 1
    41   20   55 1
    42   20   56 1
    43   21   22 1
    44   22   23 1
    45   22   57 1
    46   22   58 1
    47   23   24 1
    48   23   59 1
    49   23   60 1
    50   24   61 1
    51   26   27 2
    52   26   28 1
    53   28   33 ar
    54   28   29 ar
    55   29   30 ar
    56   29   62 1
    57   30   31 ar
    58   30   63 1
    59   31   32 ar
    60   31   35 1
    61   32   33 ar
    62   32   64 1
    63   33   34 1
    64   34   65 1
    65   34   66 1
    66   34   67 1
    67   35   36 1
    68   36   37 1
    69   36   68 1
    70   36   69 1
    71   37   38 2
    72   37   70 1
    73   38   71 1
    74   38   72 1
@<TRIPOS>MOLECULE
ZINC13517992
   58    58     0     0     0
SMALL
USER_CHARGES

@<TRIPOS>ATOM
      1 C1         -0.0187    1.5258    0.0104 C.3       1 <0>        -0.1533
      2 C2          0.0021   -0.0041    0.0020 C.3       1 <0>        -0.1261
      3 C3         -1.4333   -0.5336    0.0129 C.3       1 <0>        -0.1206
      4 C4         -1.4126   -2.0635    0.0045 C.3       1 <0>        -0.1122
      5 C5         -2.8479   -2.5931    0.0153 C.3       1 <0>        -0.1655
      6 C6         -2.8275   -4.0999    0.0070 C.2       1 <0>         0.3844
      7 O1         -1.7687   -4.6922   -0.0063 O.2       1 <0>        -0.4651
      8 C7         -4.0841   -4.8484    0.0150 C.2       1 <0>        -0.2557
      9 C8         -4.0660   -6.1828    0.0077 C.2       1 <0>        -0.0153
     10 C9         -5.3607   -6.9540    0.0159 C.3       1 <0>        -0.0657
     11 H1         -6.2053   -6.2650    0.0151 H         1 <0>         0.0942
     12 C10        -5.4324   -7.8794   -1.2163 C.3       1 <0>         0.1100
     13 H2         -6.4594   -7.9620   -1.5721 H         1 <0>         0.0710
     14 C11        -4.9280   -9.2474   -0.6938 C.3       1 <0>        -0.1944
     15 C12        -5.5313   -9.3126    0.7313 C.3       1 <0>         0.1075
     16 H3         -6.5742   -9.6267    0.6900 H         1 <0>         0.0686
     17 C13        -5.4241   -7.8643    1.2549 C.3       1 <0>        -0.0770
     18 H4         -4.5184   -7.7483    1.8502 H         1 <0>         0.0922
     19 C14        -6.6536   -7.5182    2.0971 C.3       1 <0>        -0.1130
     20 C15        -6.6375   -8.3427    3.3859 C.3       1 <0>        -0.1160
     21 C16        -7.8670   -7.9966    4.2282 C.3       1 <0>        -0.1188
     22 C17        -7.8508   -8.8210    5.5169 C.3       1 <0>        -0.1198
     23 C18        -9.0803   -8.4749    6.3592 C.3       1 <0>        -0.0930
     24 C19        -9.0642   -9.2994    7.6479 C.3       1 <0>        -0.1840
     25 C20       -10.2752   -8.9585    8.4776 C.2       1 <0>         0.4873
     26 O2        -11.0769   -8.1326    8.0754 O.co2     1 <0>        -0.7004
     27 O3        -10.4533   -9.5085    9.5510 O.co2     1 <0>        -0.7099
     28 O4         -4.7745  -10.2023    1.5545 O.3       1 <0>        -0.5559
     29 O5         -4.5815   -7.3938   -2.2566 O.3       1 <0>        -0.5573
     30 H5          1.0039    1.9031    0.0027 H         1 <0>         0.0526
     31 H6         -0.5459    1.8868   -0.8726 H         1 <0>         0.0529
     32 H7         -0.5289    1.8773    0.9072 H         1 <0>         0.0537
     33 H8          0.5123   -0.3556   -0.8948 H         1 <0>         0.0607
     34 H9          0.5293   -0.3651    0.8851 H         1 <0>         0.0615
     35 H10        -1.9435   -0.1821    0.9097 H         1 <0>         0.0626
     36 H11        -1.9605   -0.1726   -0.8702 H         1 <0>         0.0615
     37 H12        -0.9024   -2.4150   -0.8923 H         1 <0>         0.0661
     38 H13        -0.8854   -2.4246    0.8875 H         1 <0>         0.0671
     39 H14        -3.3581   -2.2415    0.9121 H         1 <0>         0.0975
     40 H15        -3.3751   -2.2320   -0.8677 H         1 <0>         0.0962
     41 H16        -5.0266   -4.3212    0.0268 H         1 <0>         0.1278
     42 H17        -3.1235   -6.7100   -0.0042 H         1 <0>         0.1237
     43 H18        -5.3081  -10.0609   -1.3118 H         1 <0>         0.0726
     44 H19        -3.8389   -9.2679   -0.6536 H         1 <0>         0.0874
     45 H20        -6.6374   -6.4568    2.3446 H         1 <0>         0.0676
     46 H21        -7.5572   -7.7456    1.5316 H         1 <0>         0.0642
     47 H22        -6.6537   -9.4041    3.1384 H         1 <0>         0.0655
     48 H23        -5.7339   -8.1152    3.9514 H         1 <0>         0.0601
     49 H24        -7.8507   -6.9351    4.4757 H         1 <0>         0.0588
     50 H25        -8.7706   -8.2240    3.6626 H         1 <0>         0.0583
     51 H26        -7.8671   -9.8825    5.2694 H         1 <0>         0.0536
     52 H27        -6.9472   -8.5936    6.0825 H         1 <0>         0.0540
     53 H28        -9.0641   -7.4135    6.6067 H         1 <0>         0.0568
     54 H29        -9.9840   -8.7024    5.7937 H         1 <0>         0.0565
     55 H30        -9.0804  -10.3608    7.4005 H         1 <0>         0.0538
     56 H31        -8.1606   -9.0720    8.2135 H         1 <0>         0.0541
     57 H32        -4.7616  -11.1159    1.2380 H         1 <0>         0.3777
     58 H33        -4.5877   -7.9379   -3.0560 H         1 <0>         0.3790
@<TRIPOS>BOND
     1    1    2 1
     2    1   30 1
     3    1   31 1
     4    1   32 1
     5    2    3 1
     6    2   33 1
     7    2   34 1
     8    3    4 1
     9    3   35 1
    10    3   36 1
    11    4    5 1
    12    4   37 1
    13    4   38 1
    14    5    6 1
    15    5   39 1
    16    5   40 1
    17    6    7 2
    18    6    8 1
    19    8    9 2
    20    8   41 1
    21    9   10 1
    22    9   42 1
    23   10   11 1
    24   10   17 1
    25   10   12 1
    26   12   13 1
    27   12   14 1
    28   12   29 1
    29   14   15 1
    30   14   43 1
    31   14   44 1
    32   15   16 1
    33   15   17 1
    34   15   28 1
    35   17   18 1
    36   17   19 1
    37   19   20 1
    38   19   45 1
    39   19   46 1
    40   20   21 1
    41   20   47 1
    42   20   48 1
    43   21   22 1
    44   21   49 1
    45   21   50 1
    46   22   23 1
    47   22   51 1
    48   22   52 1
    49   23   24 1
    50   23   53 1
    51   23   54 1
    52   24   25 1
    53   24   55 1
    54   24   56 1
    55   25   26 2
    56   25   27 1
    57   28   57 1
    58   29   58 1
@<TRIPOS>MOLECULE
ZINC13220639
   55    56     0     0     0
SMALL
USER_CHARGES
2-[3-[2-[[(1S,2R)-1-methoxycarbonyl-2-methyl-butyl]amino]-2-oxo-ethyl]sulfanyl-5-(p-tolyl)-1,2,4-triazol-4-yl]acetic acid
@<TRIPOS>ATOM
      1 C1          0.7037   10.8132    2.0265 C.3       1 <0>        -0.1513
      2 C2          1.0968    9.8588    3.1559 C.3       1 <0>        -0.1238
      3 C3          2.3830    9.1221    2.7766 C.3       1 <0>        -0.0998
      4 H1          2.2475    8.6259    1.8156 H         1 <0>         0.0978
      5 C4          3.5341   10.1249    2.6750 C.3       1 <0>        -0.1568
      6 C5          2.7082    8.0791    3.8477 C.3       1 <0>         0.1604
      7 H2          3.6693    7.6163    3.6242 H         1 <0>         0.1298
      8 C6          2.7743    8.7481    5.1965 C.2       1 <0>         0.4648
      9 O1          2.0256    8.4026    6.0796 O.2       1 <0>        -0.5004
     10 O2          3.6651    9.7278    5.4168 O.3       1 <0>        -0.3455
     11 C7          3.6725   10.3269    6.7394 C.3       1 <0>         0.0310
     12 N1          1.6633    7.0523    3.8627 N.am      1 <0>        -0.7137
     13 C8          1.7308    6.0099    3.0111 C.2       1 <0>         0.5440
     14 O3          2.6564    5.9219    2.2324 O.2       1 <0>        -0.5141
     15 C9          0.6560    4.9536    3.0264 C.3       1 <0>        -0.1510
     16 S1          1.0270    3.6972    1.7774 S.3       1 <0>         0.0895
     17 C10        -0.3486    2.6207    2.0084 C.2       1 <0>         0.1482
     18 N2         -1.3247    2.7776    2.8747 N.2       1 <0>        -0.3020
     19 N3         -2.1593    1.8050    2.7799 N.2       1 <0>        -0.2790
     20 C11        -1.7707    0.9706    1.8440 C.2       1 <0>         0.2278
     21 N4         -0.6009    1.4692    1.3188 N.pl3     1 <0>        -0.4152
     22 C12         0.2087    0.8837    0.2474 C.3       1 <0>         0.0414
     23 C13        -0.2403    1.4362   -1.0808 C.2       1 <0>         0.4555
     24 O4         -1.1439    2.2370   -1.1276 O.co2     1 <0>        -0.6067
     25 C14        -2.4596   -0.2711    1.4327 C.ar      1 <0>        -0.0147
     26 C15        -2.1791   -0.8510    0.1944 C.ar      1 <0>        -0.0986
     27 C16        -2.8219   -2.0123   -0.1814 C.ar      1 <0>        -0.1159
     28 C17        -3.7503   -2.5967    0.6619 C.ar      1 <0>        -0.0809
     29 C18        -4.0371   -2.0239    1.8882 C.ar      1 <0>        -0.1256
     30 C19        -3.3975   -0.8655    2.2783 C.ar      1 <0>        -0.0754
     31 C20        -4.4525   -3.8624    0.2425 C.3       1 <0>        -0.1128
     32 H3         -0.2126   11.3381    2.2968 H         1 <0>         0.0544
     33 H4          1.5034   11.5367    1.8674 H         1 <0>         0.0582
     34 H5          0.5403   10.2449    1.1109 H         1 <0>         0.0584
     35 H6          0.2972    9.1354    3.3151 H         1 <0>         0.0662
     36 H7          1.2602   10.4272    4.0716 H         1 <0>         0.0571
     37 H8          4.4504    9.6000    2.4048 H         1 <0>         0.0608
     38 H9          3.3024   10.8679    1.9119 H         1 <0>         0.0646
     39 H10         3.6695   10.6211    3.6360 H         1 <0>         0.0750
     40 H11         2.6965   10.7669    6.9444 H         1 <0>         0.0643
     41 H12         3.8894    9.5610    7.4840 H         1 <0>         0.0644
     42 H13         4.4370   11.1025    6.7827 H         1 <0>         0.1040
     43 H14         0.9230    7.1227    4.4855 H         1 <0>         0.4135
     44 H15        -0.3076    5.4125    2.8051 H         1 <0>         0.1287
     45 H16         0.6189    4.4873    4.0109 H         1 <0>         0.1270
     46 H17         0.0866   -0.1995    0.2503 H         1 <0>         0.1091
     47 H18         1.2579    1.1315    0.4080 H         1 <0>         0.1042
     48 H19        -1.4577   -0.3935   -0.4664 H         1 <0>         0.1386
     49 H20        -2.6028   -2.4643   -1.1375 H         1 <0>         0.1279
     50 H21        -4.7630   -2.4848    2.5416 H         1 <0>         0.1259
     51 H22        -3.6222   -0.4193    3.2359 H         1 <0>         0.1336
     52 H23        -5.3674   -3.6099   -0.2935 H         1 <0>         0.0703
     53 H24        -3.7983   -4.4423   -0.4086 H         1 <0>         0.0663
     54 H25        -4.6997   -4.4507    1.1262 H         1 <0>         0.0650
     55 O5          0.3635    1.0388   -2.2118 O.co2     1 <0>        -0.7442
@<TRIPOS>BOND
     1    1    2 1
     2    1   32 1
     3    1   33 1
     4    1   34 1
     5    2    3 1
     6    2   35 1
     7    2   36 1
     8    3    4 1
     9    3    5 1
    10    3    6 1
    11    5   37 1
    12    5   38 1
    13    5   39 1
    14    6    7 1
    15    6    8 1
    16    6   12 1
    17    8    9 2
    18    8   10 1
    19   10   11 1
    20   11   40 1
    21   11   41 1
    22   11   42 1
    23   12   13 am
    24   12   43 1
    25   13   14 2
    26   13   15 1
    27   15   16 1
    28   15   44 1
    29   15   45 1
    30   16   17 1
    31   17   21 1
    32   17   18 2
    33   18   19 1
    34   19   20 2
    35   20   21 1
    36   20   25 1
    37   21   22 1
    38   22   23 1
    39   22   46 1
    40   22   47 1
    41   23   24 2
    42   23   55 1
    43   25   30 ar
    44   25   26 ar
    45   26   27 ar
    46   26   48 1
    47   27   28 ar
    48   27   49 1
    49   28   29 ar
    50   28   31 1
    51   29   30 ar
    52   29   50 1
    53   30   51 1
    54   31   52 1
    55   31   53 1
    56   31   54 1
@<TRIPOS>MOLECULE
ZINC27639759
   61    61     0     0     0
SMALL
USER_CHARGES
7-[(1R,2R,3R)-2-[(3S,7R)-3,7-dihydroxyoctyl]-3-hydroxy-5-oxo-cyclopentyl]heptanoic acid
@<TRIPOS>ATOM
      1 C1         -2.7958  -11.9052    6.3905 C.3       1 <0>        -0.1482
      2 C2         -2.9291  -10.3849    6.2826 C.3       1 <0>         0.1102
      3 H1         -3.8763  -10.0356    6.7193 H         1 <0>         0.0491
      4 C3         -2.8058   -9.9649    4.8165 C.3       1 <0>        -0.1530
      5 C4         -3.0627   -8.4617    4.6933 C.3       1 <0>        -0.1184
      6 C5         -2.9394   -8.0417    3.2272 C.3       1 <0>        -0.1099
      7 C6         -3.1964   -6.5385    3.1040 C.3       1 <0>         0.1149
      8 H2         -2.5721   -5.9681    3.8075 H         1 <0>         0.0479
      9 C7         -2.9512   -6.0959    1.6601 C.3       1 <0>        -0.1495
     10 C8         -3.0864   -4.5750    1.5629 C.3       1 <0>        -0.1176
     11 C9         -2.8413   -4.1324    0.1190 C.3       1 <0>        -0.0706
     12 H3         -1.8783   -4.5786   -0.1702 H         1 <0>         0.0979
     13 C10        -4.0178   -4.5674   -0.7923 C.3       1 <0>         0.1211
     14 H4         -4.9988   -4.6488   -0.3013 H         1 <0>         0.0704
     15 C11        -3.9306   -3.5483   -1.9554 C.3       1 <0>        -0.2167
     16 C12        -3.5387   -2.2428   -1.2861 C.2       1 <0>         0.3767
     17 O1         -3.7408   -1.1312   -1.7125 O.2       1 <0>        -0.4293
     18 C13        -2.8479   -2.5931    0.0153 C.3       1 <0>        -0.1426
     19 H5         -3.3747   -2.1306    0.8630 H         1 <0>         0.1084
     20 C14        -1.4126   -2.0635    0.0045 C.3       1 <0>        -0.1057
     21 C15        -1.4333   -0.5336    0.0129 C.3       1 <0>        -0.1301
     22 C16         0.0021   -0.0041    0.0020 C.3       1 <0>        -0.1173
     23 C17        -0.0187    1.5258    0.0104 C.3       1 <0>        -0.1198
     24 C18         1.4167    2.0553   -0.0004 C.3       1 <0>        -0.0987
     25 C19         1.3960    3.5852    0.0080 C.3       1 <0>        -0.1586
     26 C20         2.8098    4.1068   -0.0027 C.2       1 <0>         0.4572
     27 O2          3.7387    3.3342   -0.0157 O.co2     1 <0>        -0.6429
     28 O3          3.0371    5.4297    0.0022 O.co2     1 <0>        -0.7801
     29 O4         -3.8253   -5.9007   -1.2693 O.3       1 <0>        -0.5969
     30 O5         -4.5495   -6.2553    3.4658 O.3       1 <0>        -0.5989
     31 O6         -1.8945   -9.7607    7.0455 O.3       1 <0>        -0.6020
     32 H6         -2.8844  -12.2071    7.4445 H         1 <0>         0.0606
     33 H7         -1.8149  -12.2158    6.0013 H         1 <0>         0.0624
     34 H8         -3.5922  -12.3857    5.8032 H         1 <0>         0.0704
     35 H9         -1.7933  -10.1949    4.4531 H         1 <0>         0.0701
     36 H10        -3.5449  -10.5138    4.2144 H         1 <0>         0.0694
     37 H11        -4.0752   -8.2318    5.0567 H         1 <0>         0.0696
     38 H12        -2.3236   -7.9128    5.2954 H         1 <0>         0.0589
     39 H13        -1.9269   -8.2716    2.8639 H         1 <0>         0.0751
     40 H14        -3.6784   -8.5906    2.6251 H         1 <0>         0.0694
     41 H15        -1.9383   -6.3944    1.3521 H         1 <0>         0.0688
     42 H16        -3.6906   -6.5727    0.9998 H         1 <0>         0.0838
     43 H17        -4.0993   -4.2765    1.8710 H         1 <0>         0.0612
     44 H18        -2.3469   -4.0982    2.2231 H         1 <0>         0.0691
     45 H19        -3.1729   -3.8823   -2.6795 H         1 <0>         0.1150
     46 H20        -4.9083   -3.4768   -2.4544 H         1 <0>         0.0914
     47 H21        -0.8806   -2.4279    0.8957 H         1 <0>         0.0753
     48 H22        -0.8976   -2.4182   -0.9005 H         1 <0>         0.0653
     49 H23        -1.9653   -0.1692   -0.8783 H         1 <0>         0.0750
     50 H24        -1.9482   -0.1788    0.9179 H         1 <0>         0.0609
     51 H25         0.5341   -0.3685    0.8932 H         1 <0>         0.0598
     52 H26         0.5170   -0.3589   -0.9030 H         1 <0>         0.0593
     53 H27        -0.5507    1.8901   -0.8808 H         1 <0>         0.0565
     54 H28        -0.5336    1.8806    0.9154 H         1 <0>         0.0558
     55 H29         1.9486    1.6909    0.8908 H         1 <0>         0.0585
     56 H30         1.9316    1.7005   -0.9054 H         1 <0>         0.0584
     57 H31         0.8640    3.9496   -0.8832 H         1 <0>         0.0615
     58 H32         0.8811    3.9400    0.9130 H         1 <0>         0.0613
     59 H33        -4.5735   -6.3615   -1.9310 H         1 <0>         0.4067
     60 H34        -4.9210   -5.2203    3.4384 H         1 <0>         0.4002
     61 H35        -1.8282   -8.6635    7.0881 H         1 <0>         0.4032
@<TRIPOS>BOND
     1    1    2 1
     2    1   32 1
     3    1   33 1
     4    1   34 1
     5    2    3 1
     6    2    4 1
     7    2   31 1
     8    4    5 1
     9    4   35 1
    10    4   36 1
    11    5    6 1
    12    5   37 1
    13    5   38 1
    14    6    7 1
    15    6   39 1
    16    6   40 1
    17    7    8 1
    18    7    9 1
    19    7   30 1
    20    9   10 1
    21    9   41 1
    22    9   42 1
    23   10   11 1
    24   10   43 1
    25   10   44 1
    26   11   12 1
    27   11   18 1
    28   11   13 1
    29   13   14 1
    30   13   15 1
    31   13   29 1
    32   15   16 1
    33   15   45 1
    34   15   46 1
    35   16   17 2
    36   16   18 1
    37   18   19 1
    38   18   20 1
    39   20   21 1
    40   20   47 1
    41   20   48 1
    42   21   22 1
    43   21   49 1
    44   21   50 1
    45   22   23 1
    46   22   51 1
    47   22   52 1
    48   23   24 1
    49   23   53 1
    50   23   54 1
    51   24   25 1
    52   24   55 1
    53   24   56 1
    54   25   26 1
    55   25   57 1
    56   25   58 1
    57   26   27 2
    58   26   28 1
    59   29   59 1
    60   30   60 1
    61   31   61 1
@<TRIPOS>MOLECULE
ZINC36570268
   53    53     0     0     0
SMALL
USER_CHARGES

@<TRIPOS>ATOM
      1 C1          1.0953   -0.6871   -3.3400 C.3       1 <0>        -0.1521
      2 C2          1.0742   -2.1246   -2.8164 C.3       1 <0>        -0.1219
      3 C3          1.2139   -2.1146   -1.2928 C.3       1 <0>        -0.1316
      4 C4          1.1928   -3.5521   -0.7693 C.3       1 <0>         0.1189
      5 N1          1.3265   -3.5425    0.6896 N.am      1 <0>        -0.7301
      6 C5          1.3333   -4.7039    1.3733 C.2       1 <0>         0.5082
      7 O1          1.2286   -5.7570    0.7809 O.2       1 <0>        -0.5154
      8 C6          1.4708   -4.6940    2.8740 C.3       1 <0>         0.1564
      9 H1          0.6428   -4.1360    3.3111 H         1 <0>         0.1277
     10 C7          2.7740   -4.0399    3.2547 C.2       1 <0>        -0.1781
     11 C8          2.7742   -2.9770    4.0205 C.2       1 <0>        -0.1252
     12 C9          1.4846   -2.4825    4.6234 C.3       1 <0>        -0.1399
     13 N2          1.4506   -6.0704    3.3753 N.am      1 <0>        -0.6011
     14 C10         2.5483   -6.9846    3.0503 C.3       1 <0>         0.1095
     15 C11         2.1236   -7.9043    1.9037 C.3       1 <0>        -0.1862
     16 C12         3.2934   -8.8117    1.5177 C.3       1 <0>        -0.1506
     17 C13         0.4221   -6.4957    4.1354 C.2       1 <0>         0.5922
     18 O2         -0.6248   -5.8775    4.1427 O.2       1 <0>        -0.5207
     19 C14         0.5667   -7.7114    4.9587 C.ar      1 <0>        -0.2759
     20 C15         1.2715   -8.8130    4.4673 C.ar      1 <0>        -0.0170
     21 C16         1.4029   -9.9455    5.2412 C.ar      1 <0>        -0.1879
     22 C17         0.8389   -9.9974    6.5057 C.ar      1 <0>        -0.0105
     23 C18         0.1395   -8.9161    7.0033 C.ar      1 <0>        -0.2405
     24 C19         0.0027   -7.7657    6.2405 C.ar      1 <0>         0.3310
     25 O3         -0.6792   -6.7003    6.7305 O.3       1 <0>        -0.6452
     26 N3          2.1495  -11.1121    4.7191 N.pl3     1 <0>         0.0660
     27 O4          3.0903  -10.9454    3.9783 O.2       1 <0>        -0.2029
     28 O5          1.8186  -12.2316    5.0335 O.3       1 <0>        -0.2122
     29 H2          2.0379   -0.2140   -3.0646 H         1 <0>         0.0538
     30 H3          0.9958   -0.6943   -4.4254 H         1 <0>         0.0546
     31 H4          0.2673   -0.1291   -2.9029 H         1 <0>         0.0542
     32 H5          0.1317   -2.5978   -3.0918 H         1 <0>         0.0650
     33 H6          1.9022   -2.6827   -3.2535 H         1 <0>         0.0647
     34 H7          2.1564   -1.6414   -1.0175 H         1 <0>         0.0685
     35 H8          0.3859   -1.5565   -0.8557 H         1 <0>         0.0688
     36 H9          0.2502   -4.0252   -1.0446 H         1 <0>         0.0662
     37 H10         2.0208   -4.1102   -1.2064 H         1 <0>         0.0662
     38 H11         1.4102   -2.7002    1.1634 H         1 <0>         0.3990
     39 H12         3.7077   -4.4473    2.8961 H         1 <0>         0.1182
     40 H13         3.6985   -2.4552    4.2197 H         1 <0>         0.1174
     41 H14         0.8156   -2.1516    3.8291 H         1 <0>         0.0664
     42 H15         1.0124   -3.2895    5.1836 H         1 <0>         0.0786
     43 H16         1.6932   -1.6486    5.2936 H         1 <0>         0.0642
     44 H17         3.4235   -6.4089    2.7491 H         1 <0>         0.0724
     45 H18         2.7924   -7.5852    3.9265 H         1 <0>         0.0844
     46 H19         1.2792   -8.5157    2.2221 H         1 <0>         0.0652
     47 H20         1.8320   -7.3017    1.0435 H         1 <0>         0.1257
     48 H21         3.7327   -9.2411    2.4182 H         1 <0>         0.0672
     49 H22         2.9342   -9.6125    0.8713 H         1 <0>         0.0525
     50 H23         4.0468   -8.2281    0.9887 H         1 <0>         0.0473
     51 H24         1.7125   -8.7772    3.4821 H         1 <0>         0.1692
     52 H25         0.9468  -10.8890    7.1054 H         1 <0>         0.1210
     53 H26        -0.2976   -8.9643    7.9897 H         1 <0>         0.1245
@<TRIPOS>BOND
     1    1    2 1
     2    1   29 1
     3    1   30 1
     4    1   31 1
     5    2    3 1
     6    2   32 1
     7    2   33 1
     8    3    4 1
     9    3   34 1
    10    3   35 1
    11    4    5 1
    12    4   36 1
    13    4   37 1
    14    5    6 am
    15    5   38 1
    16    6    7 2
    17    6    8 1
    18    8    9 1
    19    8   10 1
    20    8   13 1
    21   10   11 2
    22   10   39 1
    23   11   12 1
    24   11   40 1
    25   12   41 1
    26   12   42 1
    27   12   43 1
    28   13   14 1
    29   13   17 am
    30   14   15 1
    31   14   44 1
    32   14   45 1
    33   15   16 1
    34   15   46 1
    35   15   47 1
    36   16   48 1
    37   16   49 1
    38   16   50 1
    39   17   18 2
    40   17   19 1
    41   19   24 ar
    42   19   20 ar
    43   20   21 ar
    44   20   51 1
    45   21   22 ar
    46   21   26 1
    47   22   23 ar
    48   22   52 1
    49   23   24 ar
    50   23   53 1
    51   24   25 1
    52   26   27 2
    53   26   28 1
@<TRIPOS>MOLECULE
ZINC15044874
   48    49     0     0     0
SMALL
USER_CHARGES

@<TRIPOS>ATOM
      1 C1         -0.0163    1.3517    0.0095 C.2       1 <0>        -0.1872
      2 C2          1.1752    2.0368    0.0018 C.2       1 <0>        -0.0720
      3 C3          2.3220    1.2493   -0.0134 C.2       1 <0>        -0.2352
      4 S1          1.6355   -0.3959   -0.0157 S.3       1 <0>         0.2385
      5 C4          0.0021   -0.0041    0.0020 C.2       1 <0>        -0.2147
      6 C5          3.6783    1.6495   -0.0249 C.2       1 <0>         0.1536
      7 C6          4.6662    0.7098   -0.0392 C.2       1 <0>        -0.2662
      8 C7          6.0838    0.8821   -0.0465 C.2       1 <0>         0.5465
      9 O1          6.5805    1.9942   -0.0402 O.2       1 <0>        -0.4622
     10 N1          6.8406   -0.2013   -0.0600 N.am      1 <0>        -0.5207
     11 C8          6.2889   -1.4351   -0.0670 C.2       1 <0>         0.2840
     12 S2          7.0690   -2.9589   -0.0848 S.2       1 <0>        -0.3232
     13 S3          4.5397   -1.0732   -0.0461 S.3       1 <0>         0.0494
     14 C9          8.2990   -0.0629   -0.0678 C.3       1 <0>         0.0841
     15 C10         8.8155   -0.0263    1.3719 C.3       1 <0>        -0.1311
     16 C11        10.3387    0.1183    1.3637 C.3       1 <0>        -0.1131
     17 C12        10.8552    0.1548    2.8034 C.3       1 <0>        -0.1020
     18 C13        12.3784    0.2994    2.7952 C.3       1 <0>        -0.1409
     19 C14        12.8872    0.3354    4.2133 C.2       1 <0>         0.5063
     20 O2         12.1082    0.2534    5.1393 O.2       1 <0>        -0.5484
     21 N2         14.2078    0.4586    4.4525 N.am      1 <0>        -0.7272
     22 C15        14.7024    0.4936    5.8310 C.3       1 <0>         0.1147
     23 C16        16.2255    0.6382    5.8228 C.3       1 <0>        -0.1039
     24 C17        16.7421    0.6747    7.2625 C.3       1 <0>        -0.1811
     25 C18        18.2423    0.8172    7.2545 C.2       1 <0>         0.4899
     26 O3         18.8427    0.8834    6.1954 O.co2     1 <0>        -0.6996
     27 O4         18.8557    0.8662    8.3070 O.co2     1 <0>        -0.7053
     28 H1         -0.9547    1.8862    0.0258 H         1 <0>         0.1415
     29 H2          1.2184    3.1159    0.0068 H         1 <0>         0.1526
     30 H3         -0.8414   -0.6785    0.0070 H         1 <0>         0.1924
     31 H4          3.9316    2.6993   -0.0223 H         1 <0>         0.1750
     32 H5          8.7416   -0.9103   -0.5912 H         1 <0>         0.1128
     33 H6          8.5734    0.8616   -0.5758 H         1 <0>         0.1055
     34 H7          8.3729    0.8211    1.8953 H         1 <0>         0.0697
     35 H8          8.5411   -0.9508    1.8799 H         1 <0>         0.0752
     36 H9         10.7813   -0.7292    0.8403 H         1 <0>         0.0711
     37 H10        10.6131    1.0428    0.8557 H         1 <0>         0.0675
     38 H11        10.4126    1.0022    3.3269 H         1 <0>         0.0693
     39 H12        10.5808   -0.7697    3.3115 H         1 <0>         0.0714
     40 H13        12.8210   -0.5480    2.2718 H         1 <0>         0.0935
     41 H14        12.6528    1.2239    2.2872 H         1 <0>         0.0924
     42 H15        14.8308    0.5242    3.7119 H         1 <0>         0.4013
     43 H16        14.2598    1.3410    6.3544 H         1 <0>         0.0623
     44 H17        14.4280   -0.4309    6.3390 H         1 <0>         0.0626
     45 H18        16.6682   -0.2092    5.2994 H         1 <0>         0.0661
     46 H19        16.5000    1.5627    5.3148 H         1 <0>         0.0659
     47 H20        16.2995    1.5222    7.7860 H         1 <0>         0.0592
     48 H21        16.4677   -0.2497    7.7706 H         1 <0>         0.0594
@<TRIPOS>BOND
     1    1    5 2
     2    1    2 1
     3    1   28 1
     4    2    3 2
     5    2   29 1
     6    3    4 1
     7    3    6 1
     8    4    5 1
     9    5   30 1
    10    6    7 2
    11    6   31 1
    12    7   13 1
    13    7    8 1
    14    8    9 2
    15    8   10 am
    16   10   11 1
    17   10   14 1
    18   11   12 2
    19   11   13 1
    20   14   15 1
    21   14   32 1
    22   14   33 1
    23   15   16 1
    24   15   34 1
    25   15   35 1
    26   16   17 1
    27   16   36 1
    28   16   37 1
    29   17   18 1
    30   17   38 1
    31   17   39 1
    32   18   19 1
    33   18   40 1
    34   18   41 1
    35   19   20 2
    36   19   21 am
    37   21   22 1
    38   21   42 1
    39   22   23 1
    40   22   43 1
    41   22   44 1
    42   23   24 1
    43   23   45 1
    44   23   46 1
    45   24   25 1
    46   24   47 1
    47   24   48 1
    48   25   26 2
    49   25   27 1
@<TRIPOS>MOLECULE
ZINC64322619
   50    50     0     0     0
SMALL
USER_CHARGES

@<TRIPOS>ATOM
      1 C1          1.2999   -1.6525   -2.5273 C.3       1 <0>        -0.1526
      2 C2          0.5729   -1.4190   -1.2014 C.3       1 <0>        -0.1204
      3 C3         -0.7854   -2.1223   -1.2338 C.3       1 <0>        -0.1282
      4 C4         -1.5124   -1.8887    0.0921 C.3       1 <0>        -0.0977
      5 C5         -2.9198   -2.4836    0.0137 C.3       1 <0>        -0.1068
      6 C6         -3.7009   -2.1136    1.2763 C.3       1 <0>        -0.1168
      7 C7         -3.9240   -0.6004    1.3129 C.3       1 <0>        -0.1510
      8 C8         -2.8257   -3.9835   -0.0973 C.2       1 <0>         0.5062
      9 O1         -1.7398   -4.5236   -0.1123 O.2       1 <0>        -0.5242
     10 N1         -3.9483   -4.7249   -0.1800 N.am      1 <0>        -0.6593
     11 C9         -3.8661   -6.1239   -0.1737 C.ar      1 <0>         0.0201
     12 C10        -2.8927   -6.7587    0.5863 C.ar      1 <0>        -0.0674
     13 C11        -2.8119   -8.1370    0.5930 C.ar      1 <0>        -0.1734
     14 C12        -3.7043   -8.8885   -0.1605 C.ar      1 <0>         0.2771
     15 C13        -4.6779   -8.2534   -0.9207 C.ar      1 <0>        -0.2442
     16 C14        -4.7617   -6.8753   -0.9229 C.ar      1 <0>        -0.0839
     17 N2         -3.6223  -10.2850   -0.1542 N.2       1 <0>        -1.1002
     18 S1         -4.6864  -11.1810   -1.0527 S.o2      1 <0>         2.5247
     19 O2         -5.9595  -10.9118   -0.4818 O.2       1 <0>        -1.0307
     20 O3         -4.4082  -10.8293   -2.4011 O.2       1 <0>        -1.0300
     21 C15        -4.2169  -12.9064   -0.7474 C.3       1 <0>        -0.5980
     22 C16        -5.1433  -13.8342   -1.5360 C.3       1 <0>        -0.1171
     23 C17        -4.7473  -15.2894   -1.2785 C.3       1 <0>        -0.1422
     24 H1          2.2676   -1.1515   -2.5042 H         1 <0>         0.0493
     25 H2          1.4480   -2.7220   -2.6770 H         1 <0>         0.0556
     26 H3          0.7020   -1.2505   -3.3452 H         1 <0>         0.0506
     27 H4          1.1708   -1.8210   -0.3835 H         1 <0>         0.0601
     28 H5          0.4249   -0.3495   -1.0517 H         1 <0>         0.0542
     29 H6         -1.3833   -1.7203   -2.0517 H         1 <0>         0.0523
     30 H7         -0.6374   -3.1918   -1.3835 H         1 <0>         0.0842
     31 H8         -0.9593   -2.3690    0.8992 H         1 <0>         0.0698
     32 H9         -1.5807   -0.8181    0.2853 H         1 <0>         0.0656
     33 H10        -3.4341   -2.0860   -0.8612 H         1 <0>         0.0929
     34 H11        -4.6646   -2.6229    1.2696 H         1 <0>         0.0673
     35 H12        -3.1347   -2.4189    2.1562 H         1 <0>         0.0688
     36 H13        -2.9638   -0.0939    1.4107 H         1 <0>         0.0576
     37 H14        -4.4103   -0.2824    0.3907 H         1 <0>         0.0550
     38 H15        -4.5568   -0.3470    2.1635 H         1 <0>         0.0553
     39 H16        -4.8130   -4.2901   -0.2438 H         1 <0>         0.3971
     40 H17        -2.1986   -6.1743    1.1720 H         1 <0>         0.1148
     41 H18        -2.0546   -8.6307    1.1839 H         1 <0>         0.1133
     42 H19        -5.3719   -8.8376   -1.5067 H         1 <0>         0.1034
     43 H20        -5.5216   -6.3815   -1.5105 H         1 <0>         0.1025
     44 H21        -3.1868  -13.0645   -1.0666 H         1 <0>         0.1191
     45 H22        -4.3050  -13.1240    0.3170 H         1 <0>         0.1191
     46 H23        -6.1735  -13.6760   -1.2168 H         1 <0>         0.0711
     47 H24        -5.0552  -13.6166   -2.6004 H         1 <0>         0.0711
     48 H25        -5.4073  -15.9504   -1.8403 H         1 <0>         0.0546
     49 H26        -3.7172  -15.4476   -1.5976 H         1 <0>         0.0557
     50 H27        -4.8354  -15.5070   -0.2141 H         1 <0>         0.0556
@<TRIPOS>BOND
     1    1    2 1
     2    1   24 1
     3    1   25 1
     4    1   26 1
     5    2    3 1
     6    2   27 1
     7    2   28 1
     8    3    4 1
     9    3   29 1
    10    3   30 1
    11    4    5 1
    12    4   31 1
    13    4   32 1
    14    5    6 1
    15    5    8 1
    16    5   33 1
    17    6    7 1
    18    6   34 1
    19    6   35 1
    20    7   36 1
    21    7   37 1
    22    7   38 1
    23    8    9 2
    24    8   10 am
    25   10   11 1
    26   10   39 1
    27   11   16 ar
    28   11   12 ar
    29   12   13 ar
    30   12   40 1
    31   13   14 ar
    32   13   41 1
    33   14   15 ar
    34   14   17 1
    35   15   16 ar
    36   15   42 1
    37   16   43 1
    38   17   18 1
    39   18   19 2
    40   18   20 2
    41   18   21 1
    42   21   22 1
    43   21   44 1
    44   21   45 1
    45   22   23 1
    46   22   46 1
    47   22   47 1
    48   23   48 1
    49   23   49 1
    50   23   50 1
@<TRIPOS>MOLECULE
ZINC11718055
   66    67     0     0     0
SMALL
USER_CHARGES
tert-butyl 2-[[5-[3-(diethylsulfamoyl)phenyl]-4-isobutyl-1,2,4-triazol-3-yl]sulfanyl]acetate
@<TRIPOS>ATOM
      1 C1          6.6249    3.9405    6.8431 C.3       1 <0>        -0.1750
      2 C2          5.2400    4.1498    6.2273 C.3       1 <0>         0.1179
      3 N1          5.3673    4.9278    4.9924 N.pl3     1 <0>        -0.9938
      4 C3          5.4084    6.3911    5.0496 C.3       1 <0>         0.1074
      5 C4          3.9808    6.9408    5.0755 C.3       1 <0>        -0.1782
      6 S1          5.4645    4.1531    3.5320 S.o2      1 <0>         2.6873
      7 O1          5.9544    2.8459    3.7976 O.2       1 <0>        -0.9464
      8 O2          6.1197    5.0459    2.6416 O.2       1 <0>        -0.9510
      9 C5          3.8186    3.9620    2.9330 C.ar      1 <0>        -0.6727
     10 C6          3.2532    4.9464    2.1417 C.ar      1 <0>        -0.0057
     11 C7          1.9614    4.8044    1.6677 C.ar      1 <0>        -0.1303
     12 C8          1.2279    3.6786    1.9816 C.ar      1 <0>        -0.0546
     13 C9          1.7923    2.6819    2.7789 C.ar      1 <0>        -0.0297
     14 C10         3.0947    2.8337    3.2579 C.ar      1 <0>         0.0227
     15 C11         1.0121    1.4732    3.1196 C.2       1 <0>         0.2241
     16 N2          1.0601    0.8065    4.2493 N.2       1 <0>        -0.2594
     17 N3          0.2512   -0.1911    4.2047 N.2       1 <0>        -0.2859
     18 C12        -0.3676   -0.2188    3.0453 C.2       1 <0>         0.1465
     19 N4          0.0990    0.8348    2.3123 N.pl3     1 <0>        -0.4485
     20 C13        -0.2952    1.2106    0.9524 C.3       1 <0>         0.0932
     21 C14         0.5243    0.4045   -0.0573 C.3       1 <0>        -0.1120
     22 C15         1.9999    0.7920    0.0580 C.3       1 <0>        -0.1534
     23 C16         0.0274    0.7045   -1.4730 C.3       1 <0>        -0.1453
     24 S2         -1.5712   -1.3984    2.5308 S.3       1 <0>         0.0891
     25 C17        -1.6452   -2.4378    4.0108 C.3       1 <0>        -0.1275
     26 C18        -2.6410   -3.5482    3.7954 C.2       1 <0>         0.4877
     27 O3         -3.2393   -3.6286    2.7488 O.2       1 <0>        -0.4880
     28 O4         -2.8633   -4.4480    4.7664 O.3       1 <0>        -0.3402
     29 C19        -3.8359   -5.4899    4.4895 C.3       1 <0>         0.1184
     30 C20        -3.3827   -6.3006    3.2737 C.3       1 <0>        -0.1851
     31 C21        -3.9534   -6.4136    5.7035 C.3       1 <0>        -0.1426
     32 C22        -5.1967   -4.8533    4.1995 C.3       1 <0>        -0.1850
     33 H1          7.2585    3.4022    6.1382 H         1 <0>         0.0639
     34 H2          7.0726    4.9086    7.0681 H         1 <0>         0.0601
     35 H3          6.5302    3.3617    7.7619 H         1 <0>         0.0711
     36 H4          4.6065    4.6881    6.9322 H         1 <0>         0.0828
     37 H5          4.7924    3.1818    6.0023 H         1 <0>         0.0833
     38 H6          5.9350    6.7049    5.9509 H         1 <0>         0.0879
     39 H7          5.9295    6.7744    4.1723 H         1 <0>         0.0944
     40 H8          3.4543    6.6271    4.1741 H         1 <0>         0.0546
     41 H9          3.4597    6.5575    5.9527 H         1 <0>         0.0626
     42 H10         4.0114    8.0296    5.1180 H         1 <0>         0.0719
     43 H11         3.8229    5.8297    1.8933 H         1 <0>         0.1467
     44 H12         1.5258    5.5765    1.0508 H         1 <0>         0.1431
     45 H13         0.2195    3.5689    1.6110 H         1 <0>         0.1347
     46 H14         3.5356    2.0680    3.8790 H         1 <0>         0.1501
     47 H15        -0.1122    2.2746    0.8020 H         1 <0>         0.1071
     48 H16        -1.3553    1.0007    0.8102 H         1 <0>         0.1039
     49 H17         0.4108   -0.6597    0.1497 H         1 <0>         0.0847
     50 H18         2.1133    1.8561   -0.1489 H         1 <0>         0.0594
     51 H19         2.3539    0.5782    1.0666 H         1 <0>         0.0532
     52 H20         2.5837    0.2176   -0.6613 H         1 <0>         0.0664
     53 H21         0.6112    0.1301   -2.1923 H         1 <0>         0.0683
     54 H22        -1.0239    0.4284   -1.5552 H         1 <0>         0.0623
     55 H23         0.1408    1.7686   -1.6799 H         1 <0>         0.0602
     56 H24        -0.6612   -2.8647    4.2045 H         1 <0>         0.1400
     57 H25        -1.9535   -1.8337    4.8640 H         1 <0>         0.1396
     58 H26        -2.4133   -6.7541    3.4803 H         1 <0>         0.0637
     59 H27        -4.1128   -7.0828    3.0658 H         1 <0>         0.0752
     60 H28        -3.2990   -5.6425    2.4088 H         1 <0>         0.0834
     61 H29        -4.2763   -5.8361    6.5696 H         1 <0>         0.0688
     62 H30        -4.6835   -7.1958    5.4956 H         1 <0>         0.0820
     63 H31        -2.9840   -6.8672    5.9101 H         1 <0>         0.0689
     64 H32        -5.1130   -4.1952    3.3346 H         1 <0>         0.0834
     65 H33        -5.9268   -5.6355    3.9916 H         1 <0>         0.0752
     66 H34        -5.5196   -4.2758    5.0656 H         1 <0>         0.0635
@<TRIPOS>BOND
     1    1    2 1
     2    1   33 1
     3    1   34 1
     4    1   35 1
     5    2    3 1
     6    2   36 1
     7    2   37 1
     8    3    4 1
     9    3    6 1
    10    4    5 1
    11    4   38 1
    12    4   39 1
    13    5   40 1
    14    5   41 1
    15    5   42 1
    16    6    7 2
    17    6    8 2
    18    6    9 1
    19    9   14 ar
    20    9   10 ar
    21   10   11 ar
    22   10   43 1
    23   11   12 ar
    24   11   44 1
    25   12   13 ar
    26   12   45 1
    27   13   14 ar
    28   13   15 1
    29   14   46 1
    30   15   19 1
    31   15   16 2
    32   16   17 1
    33   17   18 2
    34   18   19 1
    35   18   24 1
    36   19   20 1
    37   20   21 1
    38   20   47 1
    39   20   48 1
    40   21   22 1
    41   21   23 1
    42   21   49 1
    43   22   50 1
    44   22   51 1
    45   22   52 1
    46   23   53 1
    47   23   54 1
    48   23   55 1
    49   24   25 1
    50   25   26 1
    51   25   56 1
    52   25   57 1
    53   26   27 2
    54   26   28 1
    55   28   29 1
    56   29   30 1
    57   29   31 1
    58   29   32 1
    59   30   58 1
    60   30   59 1
    61   30   60 1
    62   31   61 1
    63   31   62 1
    64   31   63 1
    65   32   64 1
    66   32   65 1
    67   32   66 1
@<TRIPOS>MOLECULE
ZINC28295618
   69    71     0     0     0
SMALL
USER_CHARGES
N,N-dibutyl-4-[(9,10-dioxo-2-anthryl)sulfonyl-methyl-amino]butanamide
@<TRIPOS>ATOM
      1 C1         -5.8091   -4.9163   -2.3146 C.3       1 <0>        -0.1556
      2 C2         -6.1015   -3.6025   -3.0421 C.3       1 <0>        -0.1225
      3 C3         -6.2723   -2.4792   -2.0174 C.3       1 <0>        -0.1415
      4 C4         -6.5647   -1.1654   -2.7449 C.3       1 <0>         0.1045
      5 N1         -6.7283   -0.0898   -1.7637 N.am      1 <0>        -0.6134
      6 C5         -8.0537    0.2043   -1.2134 C.3       1 <0>         0.1125
      7 C6         -8.7506    1.2461   -2.0908 C.3       1 <0>        -0.1334
      8 C7        -10.1349    1.5532   -1.5160 C.3       1 <0>        -0.1227
      9 C8        -10.8318    2.5950   -2.3935 C.3       1 <0>        -0.1534
     10 C9         -5.6594    0.6291   -1.3674 C.2       1 <0>         0.5149
     11 O1         -5.7948    1.5195   -0.5552 O.2       1 <0>        -0.5362
     12 C10        -4.2959    0.3265   -1.9336 C.3       1 <0>        -0.1429
     13 C11        -3.2670    1.2798   -1.3225 C.3       1 <0>        -0.1319
     14 C12        -1.8827    0.9727   -1.8973 C.3       1 <0>         0.1086
     15 N2         -0.8975    1.8855   -1.3122 N.pl3     1 <0>        -0.9937
     16 C13        -0.6910    3.2129   -1.8967 C.3       1 <0>         0.0783
     17 S1         -0.0172    1.4168    0.0098 S.o2      1 <0>         2.6884
     18 O2          0.0021   -0.0041    0.0020 O.2       1 <0>        -0.9434
     19 O3          1.1718    2.1948    0.0027 O.2       1 <0>        -0.9445
     20 C14        -0.9267    1.9002    1.4394 C.ar      1 <0>        -0.6659
     21 C15        -0.7135    3.1461    2.0003 C.ar      1 <0>         0.0025
     22 C16        -1.4247    3.5416    3.1198 C.ar      1 <0>        -0.0878
     23 C17        -2.3529    2.6770    3.6931 C.ar      1 <0>        -0.0637
     24 C18        -2.5656    1.4078    3.1262 C.ar      1 <0>        -0.1347
     25 C19        -1.8458    1.0283    1.9968 C.ar      1 <0>         0.0297
     26 C20        -3.5495    0.4838    3.7283 C.2       1 <0>         0.4362
     27 O4         -3.7331   -0.6130    3.2388 O.2       1 <0>        -0.4211
     28 C21        -4.3095    0.8958    4.9272 C.ar      1 <0>        -0.1168
     29 C22        -5.2378    0.0318    5.5011 C.ar      1 <0>        -0.0669
     30 C23        -5.9450    0.4259    6.6237 C.ar      1 <0>        -0.0950
     31 C24        -5.7353    1.6739    7.1813 C.ar      1 <0>        -0.0973
     32 C25        -4.8161    2.5453    6.6234 C.ar      1 <0>        -0.0656
     33 C26        -4.0967    2.1650    5.4940 C.ar      1 <0>        -0.1223
     34 C27        -3.1128    3.0890    4.8920 C.2       1 <0>         0.4319
     35 O5         -2.9290    4.1856    5.3817 O.2       1 <0>        -0.4166
     36 H1         -5.6863   -5.7239   -3.0513 H         1 <0>         0.0561
     37 H2         -6.6458   -5.1573   -1.6424 H         1 <0>         0.0540
     38 H3         -4.8850   -4.8123   -1.7271 H         1 <0>         0.0559
     39 H4         -5.2648   -3.3615   -3.7143 H         1 <0>         0.0649
     40 H5         -7.0256   -3.7065   -3.6296 H         1 <0>         0.0635
     41 H6         -7.1090   -2.7202   -1.3452 H         1 <0>         0.0671
     42 H7         -5.3482   -2.3752   -1.4299 H         1 <0>         0.0675
     43 H8         -5.7280   -0.9244   -3.4171 H         1 <0>         0.0822
     44 H9         -7.4888   -1.2694   -3.3325 H         1 <0>         0.0813
     45 H10        -8.6542   -0.7171   -1.1912 H         1 <0>         0.0760
     46 H11        -7.9475    0.5975   -0.1916 H         1 <0>         0.0833
     47 H12        -8.1502    2.1675   -2.1130 H         1 <0>         0.0659
     48 H13        -8.8568    0.8530   -3.1126 H         1 <0>         0.0622
     49 H14       -10.7353    0.6318   -1.4937 H         1 <0>         0.0625
     50 H15       -10.0287    1.9464   -0.4942 H         1 <0>         0.0636
     51 H16       -11.8270    2.8158   -1.9803 H         1 <0>         0.0556
     52 H17       -10.9380    2.2018   -3.4153 H         1 <0>         0.0537
     53 H18       -10.2313    3.5164   -2.4158 H         1 <0>         0.0540
     54 H19        -4.0216   -0.7115   -1.6943 H         1 <0>         0.1000
     55 H20        -4.3148    0.4583   -3.0255 H         1 <0>         0.0990
     56 H21        -3.5414    2.3178   -1.5618 H         1 <0>         0.0804
     57 H22        -3.2481    1.1480   -0.2306 H         1 <0>         0.0700
     58 H23        -1.6084   -0.0653   -1.6580 H         1 <0>         0.0991
     59 H24        -1.9016    1.1045   -2.9892 H         1 <0>         0.0930
     60 H25         0.0816    3.7487   -1.3258 H         1 <0>         0.0881
     61 H26        -1.6329    3.7799   -1.8607 H         1 <0>         0.0664
     62 H27        -0.3667    3.1066   -2.9424 H         1 <0>         0.0735
     63 H28         0.0093    3.8164    1.5593 H         1 <0>         0.1561
     64 H29        -1.2567    4.5176    3.5504 H         1 <0>         0.1560
     65 H30        -2.0044    0.0552    1.5561 H         1 <0>         0.1587
     66 H31        -5.4065   -0.9443    5.0708 H         1 <0>         0.1451
     67 H32        -6.6650   -0.2458    7.0673 H         1 <0>         0.1405
     68 H33        -6.2926    1.9706    8.0575 H         1 <0>         0.1407
     69 H34        -4.6571    3.5185    7.0637 H         1 <0>         0.1454
@<TRIPOS>BOND
     1    1    2 1
     2    1   36 1
     3    1   37 1
     4    1   38 1
     5    2    3 1
     6    2   39 1
     7    2   40 1
     8    3    4 1
     9    3   41 1
    10    3   42 1
    11    4    5 1
    12    4   43 1
    13    4   44 1
    14    5    6 1
    15    5   10 am
    16    6    7 1
    17    6   45 1
    18    6   46 1
    19    7    8 1
    20    7   47 1
    21    7   48 1
    22    8    9 1
    23    8   49 1
    24    8   50 1
    25    9   51 1
    26    9   52 1
    27    9   53 1
    28   10   11 2
    29   10   12 1
    30   12   13 1
    31   12   54 1
    32   12   55 1
    33   13   14 1
    34   13   56 1
    35   13   57 1
    36   14   15 1
    37   14   58 1
    38   14   59 1
    39   15   16 1
    40   15   17 1
    41   16   60 1
    42   16   61 1
    43   16   62 1
    44   17   18 2
    45   17   19 2
    46   17   20 1
    47   20   25 ar
    48   20   21 ar
    49   21   22 ar
    50   21   63 1
    51   22   23 ar
    52   22   64 1
    53   23   34 1
    54   23   24 ar
    55   24   25 ar
    56   24   26 1
    57   25   65 1
    58   26   27 2
    59   26   28 1
    60   28   33 ar
    61   28   29 ar
    62   29   30 ar
    63   29   66 1
    64   30   31 ar
    65   30   67 1
    66   31   32 ar
    67   31   68 1
    68   32   33 ar
    69   32   69 1
    70   33   34 1
    71   34   35 2
@<TRIPOS>MOLECULE
ZINC35764812
   75    77     0     0     0
SMALL
USER_CHARGES

@<TRIPOS>ATOM
      1 C1          0.0586    1.4543    0.9914 C.3       1 <0>        -0.1471
      2 C2         -0.0077    0.0407    0.4098 C.3       1 <0>        -0.1436
      3 C3          0.8180   -0.9084    1.2806 C.3       1 <0>         0.1555
      4 H1          0.4622   -0.8595    2.3098 H         1 <0>         0.0781
      5 C4          0.6708   -2.3386    0.7576 C.3       1 <0>        -0.1691
      6 N1          2.2279   -0.5134    1.2322 N.am      1 <0>        -0.5879
      7 C5          2.9098   -0.0805    2.4544 C.3       1 <0>         0.0758
      8 C6          3.4037   -1.2881    3.2087 C.2       1 <0>         0.4955
      9 O1          3.2057   -2.4007    2.7686 O.2       1 <0>        -0.5097
     10 N2          4.0656   -1.1316    4.3723 N.am      1 <0>        -0.6095
     11 C7          4.5457   -2.3055    5.1055 C.3       1 <0>         0.1207
     12 C8          5.9620   -2.6522    4.6419 C.3       1 <0>        -0.0890
     13 C9          6.4559   -3.8598    5.3961 C.ar      1 <0>        -0.0802
     14 C10         7.1297   -3.6977    6.5925 C.ar      1 <0>        -0.1121
     15 C11         7.5847   -4.8023    7.2881 C.ar      1 <0>        -0.1708
     16 C12         7.3656   -6.0753    6.7868 C.ar      1 <0>         0.0977
     17 C13         6.6871   -6.2385    5.5829 C.ar      1 <0>         0.1026
     18 C14         6.2294   -5.1273    4.8931 C.ar      1 <0>        -0.1644
     19 O2          6.4695   -7.4859    5.0869 O.3       1 <0>        -0.3064
     20 C15         5.7663   -7.5771    3.8462 C.3       1 <0>         0.0258
     21 O3          7.8130   -7.1630    7.4697 O.3       1 <0>        -0.3069
     22 C16         8.5017   -6.9197    8.6979 C.3       1 <0>         0.0261
     23 C17         4.3048    0.2124    4.9039 C.3       1 <0>         0.1883
     24 C18         3.1565    0.6122    5.7942 C.2       1 <0>        -0.0486
     25 C19         3.0753    0.3940    7.1190 C.2       1 <0>        -0.1834
     26 C20         1.8383    0.9284    7.5471 C.2       1 <0>        -0.2150
     27 C21         1.2376    1.4412    6.4582 C.2       1 <0>        -0.0287
     28 O4          2.0432    1.2520    5.4004 O.3       1 <0>        -0.1752
     29 C22         2.8977   -0.5482    0.0632 C.2       1 <0>         0.5286
     30 O5          2.3128   -0.8241   -0.9629 O.2       1 <0>        -0.5227
     31 C23         4.3734   -0.2445    0.0309 C.3       1 <0>        -0.1078
     32 C24         4.5887    1.2594    0.2126 C.3       1 <0>        -0.1161
     33 C25         6.0869    1.5678    0.1799 C.3       1 <0>        -0.1173
     34 C26         6.6688    1.1282   -1.1651 C.3       1 <0>        -0.1221
     35 C27         6.4536   -0.3756   -1.3469 C.3       1 <0>        -0.1199
     36 C28         4.9553   -0.6840   -1.3141 C.3       1 <0>        -0.0982
     37 H2          1.0954    1.7901    1.0127 H         1 <0>         0.0505
     38 H3         -0.5296    2.1304    0.3711 H         1 <0>         0.0539
     39 H4         -0.3426    1.4494    2.0049 H         1 <0>         0.0498
     40 H5         -1.0445   -0.2952    0.3885 H         1 <0>         0.0697
     41 H6          0.3935    0.0456   -0.6036 H         1 <0>         0.0868
     42 H7          1.1041   -2.4069   -0.2403 H         1 <0>         0.0759
     43 H8          1.1894   -3.0254    1.4266 H         1 <0>         0.0640
     44 H9         -0.3858   -2.6025    0.7137 H         1 <0>         0.0592
     45 H10         3.7555    0.5555    2.1929 H         1 <0>         0.1193
     46 H11         2.2142    0.4790    3.0798 H         1 <0>         0.1120
     47 H12         4.5561   -2.0877    6.1734 H         1 <0>         0.0812
     48 H13         3.8837   -3.1498    4.9133 H         1 <0>         0.0874
     49 H14         5.9516   -2.8700    3.5740 H         1 <0>         0.0768
     50 H15         6.6241   -1.8079    4.8341 H         1 <0>         0.0762
     51 H16         7.3011   -2.7060    6.9843 H         1 <0>         0.1266
     52 H17         8.1114   -4.6729    8.2221 H         1 <0>         0.1356
     53 H18         5.6992   -5.2513    3.9604 H         1 <0>         0.1359
     54 H19         4.7787   -7.1287    3.9545 H         1 <0>         0.0558
     55 H20         6.3230   -7.0475    3.0732 H         1 <0>         0.0552
     56 H21         5.6607   -8.6248    3.5647 H         1 <0>         0.1016
     57 H22         7.8413   -6.3928    9.3866 H         1 <0>         0.0548
     58 H23         8.8039   -7.8694    9.1393 H         1 <0>         0.1011
     59 H24         9.3853   -6.3113    8.5047 H         1 <0>         0.0550
     60 H25         5.2298    0.2158    5.4805 H         1 <0>         0.1175
     61 H26         4.3883    0.9199    4.0789 H         1 <0>         0.0968
     62 H27         3.8131   -0.0959    7.7370 H         1 <0>         0.1483
     63 H28         1.4500    0.9251    8.5548 H         1 <0>         0.1496
     64 H29         0.2729    1.9264    6.4387 H         1 <0>         0.2040
     65 H30         4.8729   -0.7829    0.8363 H         1 <0>         0.0884
     66 H31         4.0892    1.7979   -0.5927 H         1 <0>         0.0738
     67 H32         4.1741    1.5726    1.1709 H         1 <0>         0.0672
     68 H33         6.2402    2.6392    0.3094 H         1 <0>         0.0679
     69 H34         6.5864    1.0293    0.9853 H         1 <0>         0.0635
     70 H35         6.1693    1.6667   -1.9705 H         1 <0>         0.0641
     71 H36         7.7362    1.3479   -1.1884 H         1 <0>         0.0639
     72 H37         6.8681   -0.6888   -2.3051 H         1 <0>         0.0665
     73 H38         6.9531   -0.9141   -0.5415 H         1 <0>         0.0612
     74 H39         4.8020   -1.7554   -1.4436 H         1 <0>         0.0662
     75 H40         4.4559   -0.1456   -2.1195 H         1 <0>         0.0737
@<TRIPOS>BOND
     1    1    2 1
     2    1   37 1
     3    1   38 1
     4    1   39 1
     5    2    3 1
     6    2   40 1
     7    2   41 1
     8    3    4 1
     9    3    5 1
    10    3    6 1
    11    5   42 1
    12    5   43 1
    13    5   44 1
    14    6    7 1
    15    6   29 am
    16    7    8 1
    17    7   45 1
    18    7   46 1
    19    8    9 2
    20    8   10 am
    21   10   11 1
    22   10   23 1
    23   11   12 1
    24   11   47 1
    25   11   48 1
    26   12   13 1
    27   12   49 1
    28   12   50 1
    29   13   18 ar
    30   13   14 ar
    31   14   15 ar
    32   14   51 1
    33   15   16 ar
    34   15   52 1
    35   16   17 ar
    36   16   21 1
    37   17   18 ar
    38   17   19 1
    39   18   53 1
    40   19   20 1
    41   20   54 1
    42   20   55 1
    43   20   56 1
    44   21   22 1
    45   22   57 1
    46   22   58 1
    47   22   59 1
    48   23   24 1
    49   23   60 1
    50   23   61 1
    51   24   28 1
    52   24   25 2
    53   25   26 1
    54   25   62 1
    55   26   27 2
    56   26   63 1
    57   27   28 1
    58   27   64 1
    59   29   30 2
    60   29   31 1
    61   31   36 1
    62   31   32 1
    63   31   65 1
    64   32   33 1
    65   32   66 1
    66   32   67 1
    67   33   34 1
    68   33   68 1
    69   33   69 1
    70   34   35 1
    71   34   70 1
    72   34   71 1
    73   35   36 1
    74   35   72 1
    75   35   73 1
    76   36   74 1
    77   36   75 1
@<TRIPOS>MOLECULE
ZINC39743854
   62    65     0     0     0
SMALL
USER_CHARGES

@<TRIPOS>ATOM
      1 C1         -0.0173    1.4248    0.0099 C.3       1 <0>         0.0223
      2 O1          0.0021   -0.0041    0.0020 O.3       1 <0>        -0.3094
      3 C2         -1.2007   -0.6377    0.0101 C.ar      1 <0>         0.1524
      4 C3         -2.3742    0.1022    0.0195 C.ar      1 <0>        -0.1935
      5 C4         -3.5961   -0.5410    0.0272 C.ar      1 <0>        -0.0481
      6 C5         -3.6501   -1.9280    0.0256 C.ar      1 <0>         0.0558
      7 C6         -2.4757   -2.6679    0.0162 C.ar      1 <0>        -0.0603
      8 C7         -1.2543   -2.0240    0.0032 C.ar      1 <0>        -0.1368
      9 N1         -4.8921   -2.5823    0.0340 N.pl3     1 <0>        -0.3989
     10 C8         -5.4042   -3.3729    1.0280 C.2       1 <0>         0.1877
     11 N2         -6.5782   -3.7790    0.6340 N.2       1 <0>        -0.2481
     12 N3         -6.8426   -3.3044   -0.5306 N.2       1 <0>        -0.2823
     13 C9         -5.8454   -2.5582   -0.9463 C.2       1 <0>         0.1722
     14 S1         -5.7518   -1.6925   -2.4782 S.3       1 <0>         0.0318
     15 C10        -7.3239   -2.0781   -3.2969 C.3       1 <0>        -0.1137
     16 C11        -7.3753   -1.3797   -4.6573 C.3       1 <0>         0.0786
     17 O2         -8.6137   -1.6834   -5.3022 O.3       1 <0>        -0.3071
     18 C12        -8.8206   -1.1370   -6.5301 C.ar      1 <0>         0.0935
     19 C13        -7.8485   -0.3304   -7.1030 C.ar      1 <0>        -0.1672
     20 C14        -8.0586    0.2247   -8.3502 C.ar      1 <0>        -0.1113
     21 C15        -9.2415   -0.0249   -9.0300 C.ar      1 <0>         0.0931
     22 C16       -10.2133   -0.8322   -8.4576 C.ar      1 <0>        -0.1675
     23 C17       -10.0013   -1.3908   -7.2122 C.ar      1 <0>        -0.1077
     24 O3         -9.4488    0.5223  -10.2575 O.3       1 <0>        -0.3180
     25 C18       -10.6895    0.2230  -10.9002 C.3       1 <0>         0.0264
     26 C19        -4.7341   -3.7113    2.3347 C.3       1 <0>         0.1533
     27 O4         -5.0871   -2.7359    3.3176 O.3       1 <0>        -0.3076
     28 C20        -4.5624   -2.8954    4.5619 C.ar      1 <0>         0.0943
     29 C21        -3.7210   -3.9656    4.8278 C.ar      1 <0>        -0.1668
     30 C22        -3.1880   -4.1277    6.0918 C.ar      1 <0>        -0.1095
     31 C23        -3.4937   -3.2200    7.0949 C.ar      1 <0>         0.0944
     32 C24        -4.3343   -2.1493    6.8289 C.ar      1 <0>        -0.1668
     33 C25        -4.8639   -1.9849    5.5637 C.ar      1 <0>        -0.1062
     34 O5         -2.9697   -3.3801    8.3395 O.3       1 <0>        -0.3174
     35 C26        -3.3270   -2.4078    9.3239 C.3       1 <0>         0.0263
     36 H1          1.0053    1.8021    0.0021 H         1 <0>         0.1063
     37 H2         -0.5445    1.7859   -0.8732 H         1 <0>         0.0607
     38 H3         -0.5275    1.7763    0.9067 H         1 <0>         0.0600
     39 H4         -2.3321    1.1814    0.0211 H         1 <0>         0.1432
     40 H5         -4.5096    0.0350    0.0349 H         1 <0>         0.1363
     41 H6         -2.5173   -3.7471    0.0150 H         1 <0>         0.1390
     42 H7         -0.3406   -2.5996   -0.0083 H         1 <0>         0.1468
     43 H8         -7.4051   -3.1558   -3.4385 H         1 <0>         0.1108
     44 H9         -8.1509   -1.7296   -2.6782 H         1 <0>         0.1106
     45 H10        -7.2941   -0.3020   -4.5157 H         1 <0>         0.0748
     46 H11        -6.5483   -1.7281   -5.2760 H         1 <0>         0.0751
     47 H12        -6.9274   -0.1360   -6.5736 H         1 <0>         0.1350
     48 H13        -7.3019    0.8534   -8.7960 H         1 <0>         0.1351
     49 H14       -11.1345   -1.0262   -8.9868 H         1 <0>         0.1364
     50 H15       -10.7564   -2.0225   -6.7681 H         1 <0>         0.1358
     51 H16       -10.7748   -0.8544  -11.0416 H         1 <0>         0.0557
     52 H17       -11.5140    0.5744  -10.2799 H         1 <0>         0.0557
     53 H18       -10.7261    0.7207  -11.8692 H         1 <0>         0.1009
     54 H19        -5.0616   -4.6965    2.6666 H         1 <0>         0.1046
     55 H20        -3.6527   -3.7147    2.1983 H         1 <0>         0.0844
     56 H21        -3.4830   -4.6724    4.0466 H         1 <0>         0.1352
     57 H22        -2.5334   -4.9613    6.2989 H         1 <0>         0.1363
     58 H23        -4.5727   -1.4428    7.6101 H         1 <0>         0.1365
     59 H24        -5.5155   -1.1491    5.3556 H         1 <0>         0.1341
     60 H25        -4.4086   -2.4083    9.4592 H         1 <0>         0.0559
     61 H26        -2.8425   -2.6526   10.2690 H         1 <0>         0.1012
     62 H27        -3.0026   -1.4208    8.9942 H         1 <0>         0.0553
@<TRIPOS>BOND
     1    1    2 1
     2    1   36 1
     3    1   37 1
     4    1   38 1
     5    2    3 1
     6    3    8 ar
     7    3    4 ar
     8    4    5 ar
     9    4   39 1
    10    5    6 ar
    11    5   40 1
    12    6    7 ar
    13    6    9 1
    14    7    8 ar
    15    7   41 1
    16    8   42 1
    17    9   13 1
    18    9   10 1
    19   10   11 2
    20   10   26 1
    21   11   12 1
    22   12   13 2
    23   13   14 1
    24   14   15 1
    25   15   16 1
    26   15   43 1
    27   15   44 1
    28   16   17 1
    29   16   45 1
    30   16   46 1
    31   17   18 1
    32   18   23 ar
    33   18   19 ar
    34   19   20 ar
    35   19   47 1
    36   20   21 ar
    37   20   48 1
    38   21   22 ar
    39   21   24 1
    40   22   23 ar
    41   22   49 1
    42   23   50 1
    43   24   25 1
    44   25   51 1
    45   25   52 1
    46   25   53 1
    47   26   27 1
    48   26   54 1
    49   26   55 1
    50   27   28 1
    51   28   33 ar
    52   28   29 ar
    53   29   30 ar
    54   29   56 1
    55   30   31 ar
    56   30   57 1
    57   31   32 ar
    58   31   34 1
    59   32   33 ar
    60   32   58 1
    61   33   59 1
    62   34   35 1
    63   35   60 1
    64   35   61 1
    65   35   62 1
@<TRIPOS>MOLECULE
ZINC59333336
   70    72     0     0     0
SMALL
USER_CHARGES

@<TRIPOS>ATOM
      1 C1         -1.7505    0.5341   -2.3060 C.3       1 <0>        -0.1539
      2 C2         -1.2772   -0.8107   -1.7508 C.3       1 <0>         0.0513
      3 O1         -2.3539   -1.7494   -1.7941 O.3       1 <0>        -0.3027
      4 C3         -2.0987   -3.0032   -1.3334 C.ar      1 <0>         0.1195
      5 C4         -0.8461   -3.3176   -0.8476 C.ar      1 <0>        -0.1738
      6 C5         -0.5871   -4.6115   -0.3730 C.ar      1 <0>        -0.0561
      7 C6         -1.6033   -5.5776   -0.3953 C.ar      1 <0>        -0.1159
      8 C7         -2.8491   -5.2535   -0.8820 C.ar      1 <0>        -0.0458
      9 C8         -3.1054   -3.9693   -1.3469 C.ar      1 <0>         0.0839
     10 O2         -4.3383   -3.6548   -1.8204 O.3       1 <0>        -0.2945
     11 C9         -5.2487   -3.0436   -0.9041 C.3       1 <0>         0.0762
     12 C10        -6.5109   -2.6584   -1.6317 C.2       1 <0>         0.4635
     13 O3         -6.6197   -2.8842   -2.8137 O.2       1 <0>        -0.4794
     14 O4         -7.5143   -2.0645   -0.9667 O.3       1 <0>        -0.3510
     15 C11        -8.6812   -1.7269   -1.7194 C.3       1 <0>         0.0618
     16 C12        -9.7077   -1.0637   -0.7988 C.3       1 <0>        -0.1526
     17 C13        -3.9401   -6.2928   -0.9058 C.3       1 <0>        -0.0504
     18 C14        -3.9619   -6.9674   -2.2532 C.2       1 <0>        -0.1477
     19 C15        -3.8714   -8.2717   -2.3343 C.2       1 <0>        -0.1855
     20 C16         0.7399   -4.9527    0.1436 C.2       1 <0>         0.0214
     21 C17         0.8627   -5.8132    1.2127 C.2       1 <0>        -0.0960
     22 C18         2.1572   -6.2737    1.6162 C.1       1 <0>         0.2520
     23 N1          3.1842   -6.6390    1.9363 N.1       1 <0>        -0.3884
     24 C19        -0.3362   -6.2589    1.9398 C.2       1 <0>         0.5780
     25 O5         -0.8044   -7.3606    1.7232 O.2       1 <0>        -0.5169
     26 N2         -0.9158   -5.4466    2.8457 N.am      1 <0>        -0.5950
     27 C20        -0.4339   -4.0709    3.0332 C.3       1 <0>         0.0877
     28 C21        -1.6139   -3.1088    2.8476 C.3       1 <0>         0.1094
     29 N3         -2.7393   -3.5827    3.6653 N.pl3     1 <0>        -0.6284
     30 C22        -3.2211   -4.9584    3.4779 C.3       1 <0>         0.1085
     31 C23        -2.0448   -5.9187    3.6595 C.3       1 <0>         0.0957
     32 C24        -3.3399   -2.7409    4.6042 C.ar      1 <0>         0.2183
     33 C25        -2.9615   -1.4068    4.6856 C.ar      1 <0>        -0.1988
     34 C26        -3.5578   -0.5770    5.6148 C.ar      1 <0>        -0.0708
     35 C27        -4.5301   -1.0730    6.4638 C.ar      1 <0>        -0.1774
     36 C28        -4.9092   -2.4006    6.3854 C.ar      1 <0>        -0.0702
     37 C29        -4.3211   -3.2345    5.4547 C.ar      1 <0>        -0.1978
     38 H1         -0.9293    1.2501   -2.2730 H         1 <0>         0.0812
     39 H2         -2.0795    0.4059   -3.3372 H         1 <0>         0.0685
     40 H3         -2.5798    0.9045   -1.7034 H         1 <0>         0.0666
     41 H4         -0.4479   -1.1810   -2.3534 H         1 <0>         0.0656
     42 H5         -0.9482   -0.6825   -0.7196 H         1 <0>         0.0642
     43 H6         -0.0673   -2.5695   -0.8332 H         1 <0>         0.1425
     44 H7         -1.4082   -6.5755   -0.0311 H         1 <0>         0.1549
     45 H8         -5.4891   -3.7471   -0.1070 H         1 <0>         0.0964
     46 H9         -4.7897   -2.1524   -0.4760 H         1 <0>         0.0988
     47 H10        -8.4109   -1.0371   -2.5188 H         1 <0>         0.0699
     48 H11        -9.1103   -2.6317   -2.1498 H         1 <0>         0.0701
     49 H12       -10.5977   -0.8062   -1.3729 H         1 <0>         0.0821
     50 H13        -9.9779   -1.7535    0.0007 H         1 <0>         0.0678
     51 H14        -9.2786   -0.1589   -0.3684 H         1 <0>         0.0677
     52 H15        -3.7514   -7.0356   -0.1307 H         1 <0>         0.0849
     53 H16        -4.9022   -5.8140   -0.7236 H         1 <0>         0.0825
     54 H17        -4.0522   -6.3755   -3.1521 H         1 <0>         0.1131
     55 H18        -3.8870   -8.7552   -3.2999 H         1 <0>         0.0998
     56 H19        -3.7811   -8.8637   -1.4355 H         1 <0>         0.0980
     57 H20         1.6224   -4.5299   -0.3134 H         1 <0>         0.1554
     58 H21        -0.0259   -3.9599    4.0378 H         1 <0>         0.0804
     59 H22         0.3378   -3.8499    2.2958 H         1 <0>         0.0945
     60 H23        -1.3241   -2.1083    3.1688 H         1 <0>         0.0965
     61 H24        -1.9074   -3.0881    1.7981 H         1 <0>         0.0681
     62 H25        -3.9928   -5.1794    4.2153 H         1 <0>         0.0987
     63 H26        -3.6291   -5.0694    2.4732 H         1 <0>         0.0683
     64 H27        -2.3367   -6.9177    3.3356 H         1 <0>         0.1075
     65 H28        -1.7541   -5.9423    4.7097 H         1 <0>         0.0779
     66 H29        -2.2017   -1.0190    4.0234 H         1 <0>         0.1200
     67 H30        -3.2641    0.4603    5.6786 H         1 <0>         0.1199
     68 H31        -4.9943   -0.4222    7.1900 H         1 <0>         0.1176
     69 H32        -5.6689   -2.7848    7.0499 H         1 <0>         0.1205
     70 H33        -4.6208   -4.2701    5.3910 H         1 <0>         0.1219
@<TRIPOS>BOND
     1    1    2 1
     2    1   38 1
     3    1   39 1
     4    1   40 1
     5    2    3 1
     6    2   41 1
     7    2   42 1
     8    3    4 1
     9    4    9 ar
    10    4    5 ar
    11    5    6 ar
    12    5   43 1
    13    6    7 ar
    14    6   20 1
    15    7    8 ar
    16    7   44 1
    17    8    9 ar
    18    8   17 1
    19    9   10 1
    20   10   11 1
    21   11   12 1
    22   11   45 1
    23   11   46 1
    24   12   13 2
    25   12   14 1
    26   14   15 1
    27   15   16 1
    28   15   47 1
    29   15   48 1
    30   16   49 1
    31   16   50 1
    32   16   51 1
    33   17   18 1
    34   17   52 1
    35   17   53 1
    36   18   19 2
    37   18   54 1
    38   19   55 1
    39   19   56 1
    40   20   21 2
    41   20   57 1
    42   21   22 1
    43   21   24 1
    44   22   23 3
    45   24   25 2
    46   24   26 am
    47   26   31 1
    48   26   27 1
    49   27   28 1
    50   27   58 1
    51   27   59 1
    52   28   29 1
    53   28   60 1
    54   28   61 1
    55   29   30 1
    56   29   32 1
    57   30   31 1
    58   30   62 1
    59   30   63 1
    60   31   64 1
    61   31   65 1
    62   32   37 ar
    63   32   33 ar
    64   33   34 ar
    65   33   66 1
    66   34   35 ar
    67   34   67 1
    68   35   36 ar
    69   35   68 1
    70   36   37 ar
    71   36   69 1
    72   37   70 1
@<TRIPOS>MOLECULE
ZINC20129983
   74    76     0     0     0
SMALL
USER_CHARGES
(5S)-1-(3-dimethylaminopropyl)-5-(4-ethoxyphenyl)-3-hydroxy-4-(4-isobutoxy-2-methyl-benzoyl)-5H-pyrrol-2-one
@<TRIPOS>ATOM
      1 C1         -1.3793    5.2320   -7.4330 C.3       1 <0>        -0.1538
      2 C2         -0.5405    4.6520   -6.2924 C.3       1 <0>         0.0537
      3 O1         -1.1052    5.0430   -5.0393 O.3       1 <0>        -0.3190
      4 C3         -0.4757    4.6078   -3.9163 C.ar      1 <0>         0.1237
      5 C4         -0.9698    4.9500   -2.6659 C.ar      1 <0>        -0.1498
      6 C5         -0.3278    4.5067   -1.5258 C.ar      1 <0>        -0.0638
      7 C6          0.8066    3.7231   -1.6302 C.ar      1 <0>        -0.1148
      8 C7          1.3042    3.3854   -2.8752 C.ar      1 <0>        -0.0568
      9 C8          0.6624    3.8210   -4.0183 C.ar      1 <0>        -0.2093
     10 C9          1.5052    3.2414   -0.3848 C.3       1 <0>         0.2637
     11 H1          1.1404    3.8356    0.4660 H         1 <0>         0.0671
     12 C10         1.2643    1.7622   -0.1932 C.2       1 <0>        -0.4746
     13 C11         2.4771    1.1623   -0.2194 C.2       1 <0>         0.2727
     14 C12         3.5210    2.1868   -0.4316 C.2       1 <0>         0.5113
     15 O2          4.7129    1.9629   -0.5052 O.2       1 <0>        -0.5304
     16 N1          2.9569    3.4046   -0.5255 N.am      1 <0>        -0.6131
     17 C13         3.6663    4.6698   -0.7315 C.3       1 <0>         0.1397
     18 C14         4.0330    5.2756    0.6247 C.3       1 <0>        -0.1719
     19 C15         4.7738    6.5969    0.4095 C.3       1 <0>        -0.0044
     20 N2          5.1258    7.1786    1.7116 N.4       1 <0>        -0.4014
     21 C16         6.1049    6.3397    2.4156 C.3       1 <0>        -0.0513
     22 C17         5.6238    8.5520    1.5574 C.3       1 <0>        -0.0450
     23 O3          2.6985   -0.1648   -0.0771 O.3       1 <0>        -0.6017
     24 C18        -0.0330    1.1042   -0.0082 C.2       1 <0>         0.4673
     25 O4         -0.0977   -0.1101    0.0429 O.2       1 <0>        -0.4807
     26 C19        -1.2613    1.9143    0.1099 C.ar      1 <0>        -0.1429
     27 C20        -2.1550    1.9932   -0.9629 C.ar      1 <0>        -0.0408
     28 C21        -3.3023    2.7447   -0.8464 C.ar      1 <0>        -0.2094
     29 C22        -3.5673    3.4345    0.3317 C.ar      1 <0>         0.1319
     30 C23        -2.6784    3.3637    1.3984 C.ar      1 <0>        -0.1590
     31 C24        -1.5316    2.6093    1.2924 C.ar      1 <0>        -0.0253
     32 C25        -0.5693    2.5325    2.4496 C.3       1 <0>        -0.1185
     33 O5         -4.6965    4.1792    0.4403 O.3       1 <0>        -0.3143
     34 C26        -5.5660    4.2081   -0.6933 C.3       1 <0>         0.0621
     35 C27        -6.7763    5.0920   -0.3853 C.3       1 <0>        -0.0945
     36 C28        -6.3156    6.5381   -0.1916 C.3       1 <0>        -0.1472
     37 C29        -7.7669    5.0240   -1.5493 C.3       1 <0>        -0.1489
     38 H2         -0.9446    4.9310   -8.3976 H         1 <0>         0.0784
     39 H3         -1.3872    6.3296   -7.3609 H         1 <0>         0.0651
     40 H4         -2.4092    4.8524   -7.3605 H         1 <0>         0.0669
     41 H5         -0.5326    3.5544   -6.3645 H         1 <0>         0.0625
     42 H6          0.4894    5.0316   -6.3649 H         1 <0>         0.0596
     43 H7         -1.8554    5.5627   -2.5839 H         1 <0>         0.1225
     44 H8         -0.7120    4.7729   -0.5522 H         1 <0>         0.1227
     45 H9          2.1932    2.7772   -2.9540 H         1 <0>         0.1166
     46 H10         1.0488    3.5530   -4.9905 H         1 <0>         0.1219
     47 H11         4.5831    4.4860   -1.3109 H         1 <0>         0.0854
     48 H12         3.0185    5.3680   -1.2819 H         1 <0>         0.0863
     49 H13         3.1162    5.4594    1.2041 H         1 <0>         0.0918
     50 H14         4.6808    4.5774    1.1751 H         1 <0>         0.0920
     51 H15         5.6906    6.4131   -0.1699 H         1 <0>         0.1279
     52 H16         4.1260    7.2950   -0.1409 H         1 <0>         0.1322
     53 H17         6.3501    6.7976    3.3852 H         1 <0>         0.1224
     54 H18         7.0184    6.2546    1.8088 H         1 <0>         0.1186
     55 H19         5.6793    5.3388    2.5799 H         1 <0>         0.1274
     56 H20         5.8793    8.9625    2.5454 H         1 <0>         0.1220
     57 H21         4.8452    9.1742    1.0920 H         1 <0>         0.1226
     58 H22         6.5198    8.5476    0.9193 H         1 <0>         0.1171
     59 H23        -1.9475    1.4617   -1.8798 H         1 <0>         0.1195
     60 H24        -3.9953    2.8023   -1.6726 H         1 <0>         0.1233
     61 H25        -2.8880    3.9010    2.3115 H         1 <0>         0.1265
     62 H26        -0.9499    3.1400    3.2839 H         1 <0>         0.0622
     63 H27         0.4130    2.9152    2.1356 H         1 <0>         0.0768
     64 H28        -0.4686    1.4862    2.7739 H         1 <0>         0.0746
     65 H29        -5.0251    4.6160   -1.5599 H         1 <0>         0.0626
     66 H30        -5.9060    3.1870   -0.9207 H         1 <0>         0.0616
     67 H31        -7.2654    4.7367    0.5337 H         1 <0>         0.0810
     68 H32        -7.1857    7.1736    0.0298 H         1 <0>         0.0558
     69 H33        -5.8265    6.8933   -1.1106 H         1 <0>         0.0538
     70 H34        -5.6034    6.5870    0.6452 H         1 <0>         0.0623
     71 H35        -8.6370    5.6595   -1.3278 H         1 <0>         0.0646
     72 H36        -8.0981    3.9843   -1.6886 H         1 <0>         0.0586
     73 H37        -7.2777    5.3793   -2.4683 H         1 <0>         0.0584
     74 H38         4.2119    7.2169    2.3227 H         1 <0>         0.4459
@<TRIPOS>BOND
     1    1    2 1
     2    1   38 1
     3    1   39 1
     4    1   40 1
     5    2    3 1
     6    2   41 1
     7    2   42 1
     8    3    4 1
     9    4    9 ar
    10    4    5 ar
    11    5    6 ar
    12    5   43 1
    13    6    7 ar
    14    6   44 1
    15    7    8 ar
    16    7   10 1
    17    8    9 ar
    18    8   45 1
    19    9   46 1
    20   10   11 1
    21   10   16 1
    22   10   12 1
    23   12   13 2
    24   12   24 1
    25   13   14 1
    26   13   23 1
    27   14   15 2
    28   14   16 am
    29   16   17 1
    30   17   18 1
    31   17   47 1
    32   17   48 1
    33   18   19 1
    34   18   49 1
    35   18   50 1
    36   19   20 1
    37   19   51 1
    38   19   52 1
    39   20   21 1
    40   20   22 1
    41   20   74 1
    42   21   53 1
    43   21   54 1
    44   21   55 1
    45   22   56 1
    46   22   57 1
    47   22   58 1
    48   24   25 2
    49   24   26 1
    50   26   31 ar
    51   26   27 ar
    52   27   28 ar
    53   27   59 1
    54   28   29 ar
    55   28   60 1
    56   29   30 ar
    57   29   33 1
    58   30   31 ar
    59   30   61 1
    60   31   32 1
    61   32   62 1
    62   32   63 1
    63   32   64 1
    64   33   34 1
    65   34   35 1
    66   34   65 1
    67   34   66 1
    68   35   36 1
    69   35   37 1
    70   35   67 1
    71   36   68 1
    72   36   69 1
    73   36   70 1
    74   37   71 1
    75   37   72 1
    76   37   73 1
@<TRIPOS>MOLECULE
ZINC33522782
   74    77     0     0     0
SMALL
USER_CHARGES
(2R)-1-[3-(dimethylamino)propyl]-4-hydroxy-2-(3-isopentyloxyphenyl)-3-(7-methoxybenzofuran-2-carbonyl)-2H-pyrrol-5-one
@<TRIPOS>ATOM
      1 C1         -0.9758   -4.0791    4.2823 C.3       1 <0>        -0.1540
      2 C2          0.2853   -3.2139    4.2374 C.3       1 <0>        -0.0942
      3 C3          1.5052   -4.1032    3.9885 C.3       1 <0>        -0.1488
      4 C4          0.1614   -2.1901    3.1072 C.3       1 <0>        -0.1151
      5 C5         -0.9823   -1.2227    3.4186 C.3       1 <0>         0.0568
      6 O1         -1.1325   -0.2993    2.3383 O.3       1 <0>        -0.3172
      7 C6         -2.0834    0.6619    2.4760 C.ar      1 <0>         0.1290
      8 C7         -2.7840    0.7806    3.6677 C.ar      1 <0>        -0.2127
      9 C8         -3.7496    1.7587    3.8053 C.ar      1 <0>        -0.0795
     10 C9         -4.0179    2.6193    2.7567 C.ar      1 <0>        -0.1291
     11 C10        -3.3210    2.5033    1.5684 C.ar      1 <0>        -0.0443
     12 C11        -2.3584    1.5228    1.4237 C.ar      1 <0>        -0.1491
     13 C12        -3.6156    3.4432    0.4279 C.3       1 <0>         0.2723
     14 H1         -3.2254    2.9955   -0.4980 H         1 <0>         0.0725
     15 C13        -3.0114    4.8004    0.7037 C.2       1 <0>        -0.4954
     16 C14        -4.0348    5.6853    0.7299 C.2       1 <0>         0.2669
     17 C15        -5.3032    4.9683    0.4878 C.2       1 <0>         0.5188
     18 O2         -6.4014    5.4872    0.4514 O.2       1 <0>        -0.5286
     19 N1         -5.0634    3.6559    0.3144 N.am      1 <0>        -0.6128
     20 C16        -6.0686    2.6229    0.0523 C.3       1 <0>         0.1410
     21 C17        -6.2697    2.4785   -1.4576 C.3       1 <0>        -0.1731
     22 C18        -7.3196    1.3997   -1.7314 C.3       1 <0>        -0.0039
     23 N2         -7.5126    1.2611   -3.1810 N.4       1 <0>        -0.4025
     24 C19        -6.2999    0.7403   -3.8262 C.3       1 <0>        -0.0512
     25 C20        -8.6735    0.4115   -3.4786 C.3       1 <0>        -0.0449
     26 O3         -3.9152    7.0163    0.9447 O.3       1 <0>        -0.6389
     27 C21        -1.5891    5.1015    0.8990 C.2       1 <0>         0.5381
     28 O4         -1.1939    5.5007    1.9798 O.2       1 <0>        -0.4376
     29 C22        -0.6413    4.9217   -0.2089 C.2       1 <0>         0.0006
     30 C23         0.7093    5.0631   -0.1159 C.2       1 <0>        -0.1564
     31 C24         1.2374    4.7921   -1.4514 C.ar      1 <0>        -0.0987
     32 C25         2.5215    4.7736   -2.0059 C.ar      1 <0>        -0.0993
     33 C26         2.6857    4.4744   -3.3284 C.ar      1 <0>        -0.1013
     34 C27         1.5873    4.1873   -4.1274 C.ar      1 <0>        -0.1900
     35 C28         0.3091    4.1993   -3.6006 C.ar      1 <0>         0.1403
     36 C29         0.1185    4.5026   -2.2530 C.ar      1 <0>         0.0343
     37 O5         -0.9777    4.5962   -1.4740 O.3       1 <0>        -0.1569
     38 O6         -0.7584    3.9168   -4.3939 O.3       1 <0>        -0.3146
     39 C30        -0.4969    3.7065   -5.7829 C.3       1 <0>         0.0238
     40 H2         -1.8529   -3.4398    4.4612 H         1 <0>         0.0555
     41 H3         -0.8867   -4.8152    5.0948 H         1 <0>         0.0576
     42 H4         -1.0944   -4.6043    3.3231 H         1 <0>         0.0563
     43 H5          0.4040   -2.6886    5.1966 H         1 <0>         0.0737
     44 H6          2.4119   -3.4812    3.9562 H         1 <0>         0.0575
     45 H7          1.3865   -4.6284    3.0293 H         1 <0>         0.0560
     46 H8          1.5942   -4.8393    4.8010 H         1 <0>         0.0579
     47 H9          1.1027   -1.6281    3.0167 H         1 <0>         0.0750
     48 H10        -0.0467   -2.7115    2.1613 H         1 <0>         0.0732
     49 H11        -1.9162   -1.7890    3.5495 H         1 <0>         0.0627
     50 H12        -0.7550   -0.6717    4.3431 H         1 <0>         0.0616
     51 H13        -2.5748    0.1087    4.4870 H         1 <0>         0.1230
     52 H14        -4.2952    1.8515    4.7327 H         1 <0>         0.1221
     53 H15        -4.7731    3.3836    2.8663 H         1 <0>         0.1191
     54 H16        -1.8173    1.4297    0.4937 H         1 <0>         0.1249
     55 H17        -5.7269    1.6644    0.4701 H         1 <0>         0.0859
     56 H18        -7.0204    2.9096    0.5233 H         1 <0>         0.0882
     57 H19        -6.6113    3.4370   -1.8753 H         1 <0>         0.0933
     58 H20        -5.3179    2.1918   -1.9285 H         1 <0>         0.0916
     59 H21        -6.9780    0.4412   -1.3136 H         1 <0>         0.1277
     60 H22        -8.2714    1.6865   -1.2605 H         1 <0>         0.1326
     61 H23        -6.4719    0.6466   -4.9086 H         1 <0>         0.1218
     62 H24        -6.0566   -0.2471   -3.4068 H         1 <0>         0.1180
     63 H25        -5.4632    1.4314   -3.6463 H         1 <0>         0.1276
     64 H26        -8.7947    0.3248   -4.5685 H         1 <0>         0.1216
     65 H27        -9.5782    0.8614   -3.0437 H         1 <0>         0.1228
     66 H28        -8.5169   -0.5879   -3.0464 H         1 <0>         0.1169
     67 H29         1.2758    5.3231    0.7660 H         1 <0>         0.1681
     68 H30         3.3805    4.9959   -1.3903 H         1 <0>         0.1313
     69 H31         3.6774    4.4607   -3.7557 H         1 <0>         0.1319
     70 H32         1.7327    3.9525   -5.1715 H         1 <0>         0.1378
     71 H33        -1.4404    3.4885   -6.3047 H         1 <0>         0.0990
     72 H34         0.1925    2.8576   -5.9018 H         1 <0>         0.0570
     73 H35        -0.0415    4.6115   -6.2114 H         1 <0>         0.0587
     74 H36        -7.7114    2.2616   -3.5926 H         1 <0>         0.4476
@<TRIPOS>BOND
     1    1    2 1
     2    1   40 1
     3    1   41 1
     4    1   42 1
     5    2    3 1
     6    2    4 1
     7    2   43 1
     8    3   44 1
     9    3   45 1
    10    3   46 1
    11    4    5 1
    12    4   47 1
    13    4   48 1
    14    5    6 1
    15    5   49 1
    16    5   50 1
    17    6    7 1
    18    7   12 ar
    19    7    8 ar
    20    8    9 ar
    21    8   51 1
    22    9   10 ar
    23    9   52 1
    24   10   11 ar
    25   10   53 1
    26   11   12 ar
    27   11   13 1
    28   12   54 1
    29   13   14 1
    30   13   19 1
    31   13   15 1
    32   15   16 2
    33   15   27 1
    34   16   17 1
    35   16   26 1
    36   17   18 2
    37   17   19 am
    38   19   20 1
    39   20   21 1
    40   20   55 1
    41   20   56 1
    42   21   22 1
    43   21   57 1
    44   21   58 1
    45   22   23 1
    46   22   59 1
    47   22   60 1
    48   23   24 1
    49   23   25 1
    50   23   74 1
    51   24   61 1
    52   24   62 1
    53   24   63 1
    54   25   64 1
    55   25   65 1
    56   25   66 1
    57   27   28 2
    58   27   29 1
    59   29   37 1
    60   29   30 2
    61   30   31 1
    62   30   67 1
    63   31   36 ar
    64   31   32 ar
    65   32   33 ar
    66   32   68 1
    67   33   34 ar
    68   33   69 1
    69   34   35 ar
    70   34   70 1
    71   35   36 ar
    72   35   38 1
    73   36   37 1
    74   38   39 1
    75   39   71 1
    76   39   72 1
    77   39   73 1
@<TRIPOS>MOLECULE
ZINC36502588
   67    69     0     0     0
SMALL
USER_CHARGES

@<TRIPOS>ATOM
      1 C1         -4.7876   -6.7286    0.5480 C.3       1 <0>        -0.1534
      2 C2         -4.1150   -7.2035   -0.7416 C.3       1 <0>        -0.1259
      3 C3         -2.6029   -7.2913   -0.5257 C.3       1 <0>        -0.1310
      4 C4         -1.9304   -7.7662   -1.8153 C.3       1 <0>        -0.1043
      5 C5         -0.4182   -7.8541   -1.5994 C.3       1 <0>        -0.1350
      6 C6          0.2543   -8.3290   -2.8890 C.3       1 <0>         0.1272
      7 H1         -0.1946   -9.2697   -3.2078 H         1 <0>         0.1335
      8 C7          1.7268   -8.5333   -2.6418 C.2       1 <0>         0.5114
      9 O1          2.5362   -7.7856   -3.1484 O.2       1 <0>        -0.5103
     10 N1          2.1442   -9.5470   -1.8578 N.am      1 <0>        -0.7036
     11 C8          3.5756   -9.7457   -1.6175 C.3       1 <0>        -0.3611
     12 S1          4.0481   -8.9272   -0.0692 S.o2      1 <0>         2.4709
     13 O2          5.4211   -9.1641    0.2105 O.2       1 <0>        -0.9311
     14 O3          3.5179   -7.6094   -0.0306 O.2       1 <0>        -0.9181
     15 C9          3.1759   -9.7998    1.1888 C.ar      1 <0>        -0.6661
     16 C10         1.9088   -9.3918    1.5614 C.ar      1 <0>        -0.0178
     17 C11         1.2246  -10.0764    2.5483 C.ar      1 <0>        -0.1402
     18 C12         1.8072  -11.1693    3.1622 C.ar      1 <0>        -0.0266
     19 C13         3.0740  -11.5779    2.7890 C.ar      1 <0>        -0.1401
     20 C14         3.7565  -10.8959    1.7991 C.ar      1 <0>        -0.0198
     21 C15         1.0617  -11.9151    4.2388 C.3       1 <0>        -0.1274
     22 N2          0.0702   -7.3206   -3.9357 N.am      1 <0>        -0.5838
     23 C16         0.6079   -5.9700   -3.7544 C.3       1 <0>         0.1657
     24 C17        -0.3248   -5.1711   -2.8809 C.2       1 <0>        -0.0490
     25 C18        -0.5006   -3.8384   -2.9304 C.2       1 <0>        -0.1973
     26 C19        -1.4590   -3.5148   -1.9426 C.2       1 <0>        -0.2054
     27 C20        -1.8114   -4.6691   -1.3486 C.2       1 <0>        -0.0585
     28 O4         -1.1255   -5.6697   -1.9249 O.3       1 <0>        -0.1344
     29 C21        -0.5939   -7.6356   -5.0655 C.2       1 <0>         0.5701
     30 O5         -1.0029   -8.7677   -5.2345 O.2       1 <0>        -0.5264
     31 C22        -0.8248   -6.6041   -6.0992 C.ar      1 <0>        -0.1371
     32 C23        -1.0389   -5.2757   -5.7282 C.ar      1 <0>        -0.1101
     33 C24        -1.2533   -4.3180   -6.6978 C.ar      1 <0>        -0.1256
     34 C25        -1.2569   -4.6720   -8.0353 C.ar      1 <0>        -0.0923
     35 C26        -1.0458   -5.9871   -8.4098 C.ar      1 <0>        -0.1266
     36 C27        -0.8240   -6.9535   -7.4505 C.ar      1 <0>        -0.0616
     37 H2         -4.5755   -7.4356    1.3501 H         1 <0>         0.0536
     38 H3         -4.4015   -5.7458    0.8185 H         1 <0>         0.0517
     39 H4         -5.8649   -6.6660    0.3942 H         1 <0>         0.0537
     40 H5         -4.5011   -8.1863   -1.0121 H         1 <0>         0.0608
     41 H6         -4.3271   -6.4964   -1.5436 H         1 <0>         0.0601
     42 H7         -2.2168   -6.3085   -0.2552 H         1 <0>         0.0742
     43 H8         -2.3908   -7.9984    0.2763 H         1 <0>         0.0592
     44 H9         -2.3165   -8.7490   -2.0858 H         1 <0>         0.0561
     45 H10        -2.1424   -7.0592   -2.6173 H         1 <0>         0.0766
     46 H11        -0.0321   -6.8713   -1.3289 H         1 <0>         0.1034
     47 H12        -0.2062   -8.5611   -0.7974 H         1 <0>         0.0759
     48 H13         1.4968  -10.1451   -1.4527 H         1 <0>         0.4149
     49 H14         3.7871  -10.8124   -1.5438 H         1 <0>         0.1468
     50 H15         4.1453   -9.3185   -2.4428 H         1 <0>         0.1565
     51 H16         1.4536   -8.5379    1.0817 H         1 <0>         0.1399
     52 H17         0.2349   -9.7572    2.8399 H         1 <0>         0.1337
     53 H18         3.5293  -12.4316    3.2689 H         1 <0>         0.1341
     54 H19         4.7447  -11.2174    1.5048 H         1 <0>         0.1420
     55 H20         0.4725  -12.7129    3.7867 H         1 <0>         0.0808
     56 H21         1.7740  -12.3441    4.9436 H         1 <0>         0.0739
     57 H22         0.3992  -11.2276    4.7649 H         1 <0>         0.0738
     58 H23         1.5877   -6.0296   -3.2807 H         1 <0>         0.1278
     59 H24         0.7026   -5.4833   -4.7252 H         1 <0>         0.1229
     60 H25        -0.0045   -3.1481   -3.5964 H         1 <0>         0.1497
     61 H26        -1.8356   -2.5298   -1.7094 H         1 <0>         0.1473
     62 H27        -2.5275   -4.7740   -0.5469 H         1 <0>         0.2028
     63 H28        -1.0370   -4.9982   -4.6845 H         1 <0>         0.1498
     64 H29        -1.4190   -3.2897   -6.4121 H         1 <0>         0.1295
     65 H30        -1.4255   -3.9185   -8.7904 H         1 <0>         0.1280
     66 H31        -1.0501   -6.2569   -9.4555 H         1 <0>         0.1307
     67 H32        -0.6545   -7.9788   -7.7443 H         1 <0>         0.1317
@<TRIPOS>BOND
     1    1    2 1
     2    1   37 1
     3    1   38 1
     4    1   39 1
     5    2    3 1
     6    2   40 1
     7    2   41 1
     8    3    4 1
     9    3   42 1
    10    3   43 1
    11    4    5 1
    12    4   44 1
    13    4   45 1
    14    5    6 1
    15    5   46 1
    16    5   47 1
    17    6    7 1
    18    6    8 1
    19    6   22 1
    20    8    9 2
    21    8   10 am
    22   10   11 1
    23   10   48 1
    24   11   12 1
    25   11   49 1
    26   11   50 1
    27   12   13 2
    28   12   14 2
    29   12   15 1
    30   15   20 ar
    31   15   16 ar
    32   16   17 ar
    33   16   51 1
    34   17   18 ar
    35   17   52 1
    36   18   19 ar
    37   18   21 1
    38   19   20 ar
    39   19   53 1
    40   20   54 1
    41   21   55 1
    42   21   56 1
    43   21   57 1
    44   22   23 1
    45   22   29 am
    46   23   24 1
    47   23   58 1
    48   23   59 1
    49   24   28 1
    50   24   25 2
    51   25   26 1
    52   25   60 1
    53   26   27 2
    54   26   61 1
    55   27   28 1
    56   27   62 1
    57   29   30 2
    58   29   31 1
    59   31   36 ar
    60   31   32 ar
    61   32   33 ar
    62   32   63 1
    63   33   34 ar
    64   33   64 1
    65   34   35 ar
    66   34   65 1
    67   35   36 ar
    68   35   66 1
    69   36   67 1
@<TRIPOS>MOLECULE
ZINC36600837
   73    75     0     0     0
SMALL
USER_CHARGES

@<TRIPOS>ATOM
      1 C1          1.7995    1.1840    1.1807 C.3       1 <0>        -0.1535
      2 C2          1.1420    0.1823    0.2293 C.3       1 <0>        -0.1249
      3 C3          0.2416   -0.7632    1.0269 C.3       1 <0>        -0.1195
      4 C4         -0.4159   -1.7649    0.0755 C.3       1 <0>        -0.1027
      5 C5         -1.3164   -2.7104    0.8731 C.3       1 <0>        -0.1432
      6 C6         -1.9640   -3.6970   -0.0640 C.2       1 <0>         0.5251
      7 O1         -1.7285   -3.6488   -1.2528 O.2       1 <0>        -0.5183
      8 N1         -2.8048   -4.6331    0.4189 N.am      1 <0>        -0.6022
      9 C7         -3.0892   -4.6914    1.8549 C.3       1 <0>         0.1772
     10 C8         -4.1595   -3.6870    2.1961 C.2       1 <0>        -0.0440
     11 C9         -5.3758   -3.9722    2.6949 C.2       1 <0>        -0.1600
     12 C10        -6.0489   -2.7403    2.8628 C.2       1 <0>        -0.2167
     13 C11        -5.2036   -1.7759    2.4567 C.2       1 <0>        -0.0083
     14 O2         -4.0587   -2.3547    2.0594 O.3       1 <0>        -0.1739
     15 C12        -5.4906   -0.2964    2.4534 C.3       1 <0>        -0.0757
     16 C13        -3.4344   -5.5923   -0.4921 C.3       1 <0>         0.1851
     17 H1         -2.6690   -6.0647   -1.1079 H         1 <0>         0.1066
     18 C14        -4.4182   -4.8724   -1.3780 C.ar      1 <0>        -0.1072
     19 C15        -5.3219   -3.9830   -0.8273 C.ar      1 <0>        -0.0801
     20 C16        -6.2244   -3.3226   -1.6399 C.ar      1 <0>        -0.1230
     21 C17        -6.2229   -3.5513   -3.0032 C.ar      1 <0>        -0.0721
     22 C18        -5.3186   -4.4400   -3.5540 C.ar      1 <0>        -0.1247
     23 C19        -4.4132   -5.0971   -2.7419 C.ar      1 <0>        -0.0877
     24 C20        -7.2074   -2.8321   -3.8890 C.3       1 <0>        -0.1170
     25 C21        -4.1562   -6.6457    0.3081 C.2       1 <0>         0.5177
     26 O3         -4.9018   -6.3193    1.2073 O.2       1 <0>        -0.4944
     27 N2         -3.9733   -7.9505    0.0245 N.am      1 <0>        -0.7000
     28 C22        -4.6751   -8.9746    0.8023 C.3       1 <0>        -0.3635
     29 S1         -6.2008   -9.4472   -0.0575 S.o2      1 <0>         2.4699
     30 O4         -6.8615  -10.4855    0.6529 O.2       1 <0>        -0.9307
     31 O5         -6.9098   -8.2868   -0.4698 O.2       1 <0>        -0.9128
     32 C23        -5.6613  -10.2006   -1.5562 C.ar      1 <0>        -0.6672
     33 C24        -5.4676   -9.4292   -2.6868 C.ar      1 <0>        -0.0167
     34 C25        -5.0443  -10.0203   -3.8626 C.ar      1 <0>        -0.1403
     35 C26        -4.8142  -11.3826   -3.9075 C.ar      1 <0>        -0.0264
     36 C27        -5.0070  -12.1538   -2.7766 C.ar      1 <0>        -0.1407
     37 C28        -5.4262  -11.5621   -1.5997 C.ar      1 <0>        -0.0202
     38 C29        -4.3537  -12.0271   -5.1896 C.3       1 <0>        -0.1274
     39 H2          2.4410    1.8576    0.6125 H         1 <0>         0.0536
     40 H3          1.0280    1.7610    1.6906 H         1 <0>         0.0533
     41 H4          2.3979    0.6471    1.9167 H         1 <0>         0.0532
     42 H5          0.5436    0.7192   -0.5068 H         1 <0>         0.0616
     43 H6          1.9135   -0.3946   -0.2807 H         1 <0>         0.0615
     44 H7          0.8399   -1.3001    1.7629 H         1 <0>         0.0616
     45 H8         -0.5299   -0.1862    1.5368 H         1 <0>         0.0623
     46 H9         -1.0143   -1.2280   -0.6606 H         1 <0>         0.0691
     47 H10         0.3555   -2.3418   -0.4345 H         1 <0>         0.0687
     48 H11        -0.7180   -3.2473    1.6091 H         1 <0>         0.0920
     49 H12        -2.0878   -2.1334    1.3830 H         1 <0>         0.1063
     50 H13        -3.4332   -5.6920    2.1168 H         1 <0>         0.1307
     51 H14        -2.1827   -4.4608    2.4145 H         1 <0>         0.0938
     52 H15        -5.7640   -4.9540    2.9226 H         1 <0>         0.1535
     53 H16        -7.0497   -2.6004    3.2437 H         1 <0>         0.1460
     54 H17        -5.1864    0.1348    3.4071 H         1 <0>         0.0811
     55 H18        -4.9350    0.1797    1.6455 H         1 <0>         0.0748
     56 H19        -6.5582   -0.1338    2.3052 H         1 <0>         0.0878
     57 H20        -5.3232   -3.8044    0.2378 H         1 <0>         0.1328
     58 H21        -6.9310   -2.6283   -1.2096 H         1 <0>         0.1193
     59 H22        -5.3176   -4.6189   -4.6191 H         1 <0>         0.1231
     60 H23        -3.7042   -5.7886   -3.1727 H         1 <0>         0.1210
     61 H24        -6.7709   -1.8934   -4.2302 H         1 <0>         0.0711
     62 H25        -7.4449   -3.4566   -4.7502 H         1 <0>         0.0672
     63 H26        -8.1185   -2.6262   -3.3273 H         1 <0>         0.0668
     64 H27        -3.3770   -8.2116   -0.6947 H         1 <0>         0.4158
     65 H28        -4.0344   -9.8495    0.9128 H         1 <0>         0.1484
     66 H29        -4.9211   -8.5777    1.7872 H         1 <0>         0.1579
     67 H30        -5.6474   -8.3649   -2.6517 H         1 <0>         0.1407
     68 H31        -4.8937   -9.4177   -4.7461 H         1 <0>         0.1340
     69 H32        -4.8275  -13.2182   -2.8118 H         1 <0>         0.1341
     70 H33        -5.5732  -12.1640   -0.7152 H         1 <0>         0.1418
     71 H34        -3.2643  -12.0262   -5.2258 H         1 <0>         0.0808
     72 H35        -4.7178  -13.0536   -5.2314 H         1 <0>         0.0739
     73 H36        -4.7459  -11.4676   -6.0388 H         1 <0>         0.0740
@<TRIPOS>BOND
     1    1    2 1
     2    1   39 1
     3    1   40 1
     4    1   41 1
     5    2    3 1
     6    2   42 1
     7    2   43 1
     8    3    4 1
     9    3   44 1
    10    3   45 1
    11    4    5 1
    12    4   46 1
    13    4   47 1
    14    5    6 1
    15    5   48 1
    16    5   49 1
    17    6    7 2
    18    6    8 am
    19    8    9 1
    20    8   16 1
    21    9   10 1
    22    9   50 1
    23    9   51 1
    24   10   14 1
    25   10   11 2
    26   11   12 1
    27   11   52 1
    28   12   13 2
    29   12   53 1
    30   13   14 1
    31   13   15 1
    32   15   54 1
    33   15   55 1
    34   15   56 1
    35   16   17 1
    36   16   18 1
    37   16   25 1
    38   18   23 ar
    39   18   19 ar
    40   19   20 ar
    41   19   57 1
    42   20   21 ar
    43   20   58 1
    44   21   22 ar
    45   21   24 1
    46   22   23 ar
    47   22   59 1
    48   23   60 1
    49   24   61 1
    50   24   62 1
    51   24   63 1
    52   25   26 2
    53   25   27 am
    54   27   28 1
    55   27   64 1
    56   28   29 1
    57   28   65 1
    58   28   66 1
    59   29   30 2
    60   29   31 2
    61   29   32 1
    62   32   37 ar
    63   32   33 ar
    64   33   34 ar
    65   33   67 1
    66   34   35 ar
    67   34   68 1
    68   35   36 ar
    69   35   38 1
    70   36   37 ar
    71   36   69 1
    72   37   70 1
    73   38   71 1
    74   38   72 1
    75   38   73 1
@<TRIPOS>MOLECULE
ZINC33785751
   67    69     0     0     0
SMALL
USER_CHARGES

@<TRIPOS>ATOM
      1 C1          1.9147    0.7712   -0.4271 C.3       1 <0>        -0.1086
      2 C2          0.9375   -0.3549   -0.2078 C.ar      1 <0>        -0.1117
      3 C3          0.0361   -0.6890   -1.2016 C.ar      1 <0>        -0.0744
      4 C4         -0.8628   -1.7212   -1.0061 C.ar      1 <0>        -0.1994
      5 C5         -0.8625   -2.4236    0.1879 C.ar      1 <0>         0.1169
      6 C6          0.0454   -2.0876    1.1895 C.ar      1 <0>         0.1025
      7 C7          0.9484   -1.0547    0.9839 C.ar      1 <0>        -0.0318
      8 N1          0.0504   -2.7945    2.3992 N.pl3     1 <0>        -0.6233
      9 C8          0.1486   -2.1301    3.5677 C.2       1 <0>         0.5628
     10 S1          0.1262   -0.4183    3.5835 S.2       1 <0>        -0.6218
     11 N2          0.2644   -2.8132    4.7237 N.pl3     1 <0>        -0.5467
     12 C9          0.3712   -2.0909    5.9938 C.3       1 <0>         0.1485
     13 C10        -1.0069   -1.8629    6.5594 C.ar      1 <0>        -0.1489
     14 C11        -1.7088   -0.7190    6.2270 C.ar      1 <0>        -0.0470
     15 C12        -2.9721   -0.5074    6.7445 C.ar      1 <0>        -0.1574
     16 C13        -3.5365   -1.4442    7.5981 C.ar      1 <0>         0.1343
     17 C14        -2.8304   -2.5914    7.9297 C.ar      1 <0>        -0.2180
     18 C15        -1.5696   -2.8007    7.4054 C.ar      1 <0>        -0.0658
     19 O1         -4.7789   -1.2381    8.1088 O.3       1 <0>        -0.3178
     20 C16        -5.2970   -2.2447    8.9808 C.3       1 <0>         0.0274
     21 C17         0.2835   -4.2780    4.7102 C.3       1 <0>         0.1440
     22 C18         1.7048   -4.7606    4.5755 C.ar      1 <0>        -0.1645
     23 C19         2.1829   -5.1639    3.3426 C.ar      1 <0>        -0.0549
     24 C20         3.4856   -5.6073    3.2137 C.ar      1 <0>        -0.1979
     25 C21         4.3186   -5.6493    4.3217 C.ar      1 <0>         0.1352
     26 C22         3.8420   -5.2444    5.5626 C.ar      1 <0>         0.0484
     27 C23         2.5328   -4.7941    5.6870 C.ar      1 <0>         0.1409
     28 O2          2.0633   -4.3919    6.8983 O.3       1 <0>        -0.3255
     29 C24         1.4588   -5.3896    7.7236 C.3       1 <0>         0.0326
     30 O3          4.6563   -5.2841    6.6524 O.3       1 <0>        -0.3184
     31 C25         5.4261   -4.1127    6.9300 C.3       1 <0>         0.0379
     32 O4          5.6000   -6.0866    4.1941 O.3       1 <0>        -0.3012
     33 C26         6.0217   -6.4875    2.8889 C.3       1 <0>         0.0224
     34 O5         -1.7466   -3.4385    0.3819 O.3       1 <0>        -0.3223
     35 C27        -2.6482   -3.7269   -0.6885 C.3       1 <0>         0.0289
     36 H1          2.8269    0.3784   -0.8762 H         1 <0>         0.0665
     37 H2          1.4719    1.5121   -1.0927 H         1 <0>         0.0656
     38 H3          2.1522    1.2376    0.5291 H         1 <0>         0.0696
     39 H4          0.0339   -0.1420   -2.1328 H         1 <0>         0.1271
     40 H5         -1.5656   -1.9796   -1.7844 H         1 <0>         0.1322
     41 H6          1.6566   -0.7945    1.7567 H         1 <0>         0.1459
     42 H7         -0.0169   -3.7622    2.3958 H         1 <0>         0.4030
     43 H8          0.9601   -2.6788    6.6978 H         1 <0>         0.1118
     44 H9          0.8584   -1.1304    5.8258 H         1 <0>         0.1174
     45 H10        -1.2689    0.0100    5.5625 H         1 <0>         0.1570
     46 H11        -3.5196    0.3866    6.4852 H         1 <0>         0.1298
     47 H12        -3.2677   -3.3221    8.5940 H         1 <0>         0.1258
     48 H13        -1.0213   -3.6957    7.6597 H         1 <0>         0.1184
     49 H14        -5.3533   -3.1936    8.4474 H         1 <0>         0.0541
     50 H15        -4.6396   -2.3515    9.8437 H         1 <0>         0.0557
     51 H16        -6.2933   -1.9570    9.3165 H         1 <0>         0.1002
     52 H17        -0.1418   -4.6555    5.6401 H         1 <0>         0.1042
     53 H18        -0.3050   -4.6413    3.8677 H         1 <0>         0.0864
     54 H19         1.5366   -5.1327    2.4778 H         1 <0>         0.1281
     55 H20         3.8552   -5.9218    2.2489 H         1 <0>         0.1406
     56 H21         2.1852   -6.1737    7.9368 H         1 <0>         0.0575
     57 H22         1.1283   -4.9365    8.6583 H         1 <0>         0.1005
     58 H23         0.6017   -5.8195    7.2053 H         1 <0>         0.0468
     59 H24         6.0792   -3.8982    6.0841 H         1 <0>         0.0457
     60 H25         4.7566   -3.2686    7.0954 H         1 <0>         0.0503
     61 H26         6.0299   -4.2778    7.8224 H         1 <0>         0.0955
     62 H27         5.3957   -7.3093    2.5413 H         1 <0>         0.0593
     63 H28         5.9299   -5.6455    2.2028 H         1 <0>         0.0587
     64 H29         7.0611   -6.8134    2.9270 H         1 <0>         0.1058
     65 H30        -3.2549   -2.8463   -0.8999 H         1 <0>         0.0581
     66 H31        -2.0806   -3.9991   -1.5784 H         1 <0>         0.0570
     67 H32        -3.2970   -4.5553   -0.4039 H         1 <0>         0.0999
@<TRIPOS>BOND
     1    1    2 1
     2    1   36 1
     3    1   37 1
     4    1   38 1
     5    2    7 ar
     6    2    3 ar
     7    3    4 ar
     8    3   39 1
     9    4    5 ar
    10    4   40 1
    11    5    6 ar
    12    5   34 1
    13    6    7 ar
    14    6    8 1
    15    7   41 1
    16    8    9 1
    17    8   42 1
    18    9   10 2
    19    9   11 1
    20   11   12 1
    21   11   21 1
    22   12   13 1
    23   12   43 1
    24   12   44 1
    25   13   18 ar
    26   13   14 ar
    27   14   15 ar
    28   14   45 1
    29   15   16 ar
    30   15   46 1
    31   16   17 ar
    32   16   19 1
    33   17   18 ar
    34   17   47 1
    35   18   48 1
    36   19   20 1
    37   20   49 1
    38   20   50 1
    39   20   51 1
    40   21   22 1
    41   21   52 1
    42   21   53 1
    43   22   27 ar
    44   22   23 ar
    45   23   24 ar
    46   23   54 1
    47   24   25 ar
    48   24   55 1
    49   25   26 ar
    50   25   32 1
    51   26   27 ar
    52   26   30 1
    53   27   28 1
    54   28   29 1
    55   29   56 1
    56   29   57 1
    57   29   58 1
    58   30   31 1
    59   31   59 1
    60   31   60 1
    61   31   61 1
    62   32   33 1
    63   33   62 1
    64   33   63 1
    65   33   64 1
    66   34   35 1
    67   35   65 1
    68   35   66 1
    69   35   67 1
@<TRIPOS>MOLECULE
ZINC16448745
   59    61     0     0     0
SMALL
USER_CHARGES
ethyl 3-[[2-[[4-allyl-5-[(2-fluorophenyl)methylsulfanylmethyl]-1,2,4-triazol-3-yl]sulfanyl]acetyl]amino]benzoate
@<TRIPOS>ATOM
      1 C1          8.1160    2.6984    1.9493 C.3       1 <0>        -0.1538
      2 C2          6.9310    1.7403    2.0863 C.3       1 <0>         0.0629
      3 O1          5.7936    2.2696    1.3552 O.3       1 <0>        -0.3524
      4 C3          4.6609    1.5406    1.3750 C.2       1 <0>         0.5115
      5 O2          4.6244    0.4916    1.9862 O.2       1 <0>        -0.5042
      6 C4          3.4631    2.0171    0.6532 C.ar      1 <0>        -0.1089
      7 C5          3.5026    3.2228   -0.0508 C.ar      1 <0>        -0.0710
      8 C6          2.3826    3.6651   -0.7243 C.ar      1 <0>        -0.1127
      9 C7          1.2206    2.9160   -0.7098 C.ar      1 <0>        -0.0821
     10 C8          1.1693    1.7177   -0.0080 C.ar      1 <0>         0.1311
     11 C9          2.2888    1.2641    0.6720 C.ar      1 <0>        -0.0767
     12 N1         -0.0111    0.9658    0.0074 N.am      1 <0>        -0.6644
     13 C10        -1.2065    1.5883    0.0172 C.2       1 <0>         0.5382
     14 O3         -1.2615    2.7970   -0.0669 O.2       1 <0>        -0.5039
     15 C11        -2.4747    0.7824    0.1328 C.3       1 <0>        -0.1507
     16 S1         -3.9010    1.8967    0.1180 S.3       1 <0>         0.0914
     17 C12        -5.2075    0.7232    0.2617 C.2       1 <0>         0.1456
     18 N2         -5.0799   -0.5809    0.3436 N.2       1 <0>        -0.2899
     19 N3         -6.2391   -1.1277    0.4401 N.2       1 <0>        -0.2593
     20 C13        -7.1679   -0.2142    0.4174 C.2       1 <0>         0.2010
     21 N4         -6.5443    0.9976    0.3030 N.pl3     1 <0>        -0.4473
     22 C14        -7.1790    2.3164    0.2381 C.3       1 <0>         0.1331
     23 C15        -7.4616    2.6677   -1.1999 C.2       1 <0>        -0.1901
     24 C16        -8.6768    2.9888   -1.5691 C.2       1 <0>        -0.1358
     25 C17        -8.6540   -0.4494    0.5017 C.3       1 <0>        -0.0098
     26 S2         -9.3278   -0.6648   -1.1687 S.3       1 <0>        -0.2034
     27 C18       -11.1007   -0.9344   -0.8954 C.3       1 <0>        -0.0518
     28 C19       -11.7893   -1.1303   -2.2214 C.ar      1 <0>        -0.1119
     29 C20       -12.3011   -0.0417   -2.9022 C.ar      1 <0>        -0.0718
     30 C21       -12.9277   -0.2204   -4.1212 C.ar      1 <0>        -0.1304
     31 C22       -13.0534   -1.4895   -4.6556 C.ar      1 <0>        -0.0821
     32 C23       -12.5476   -2.5799   -3.9742 C.ar      1 <0>        -0.1545
     33 C24       -11.9146   -2.4014   -2.7555 C.ar      1 <0>         0.1185
     34 F1        -11.4201   -3.4668   -2.0881 F         1 <0>        -0.1309
     35 H1          8.3780    2.8040    0.8966 H         1 <0>         0.0679
     36 H2          7.8443    3.6727    2.3556 H         1 <0>         0.0679
     37 H3          8.9698    2.3011    2.4982 H         1 <0>         0.0821
     38 H4          6.6690    1.6347    3.1391 H         1 <0>         0.0721
     39 H5          7.2026    0.7660    1.6800 H         1 <0>         0.0723
     40 H6          4.4097    3.8086   -0.0682 H         1 <0>         0.1418
     41 H7          2.4150    4.5976   -1.2681 H         1 <0>         0.1390
     42 H8          0.3484    3.2654   -1.2423 H         1 <0>         0.1475
     43 H9          2.2520    0.3312    1.2149 H         1 <0>         0.1431
     44 H10         0.0311   -0.0033    0.0069 H         1 <0>         0.4187
     45 H11        -2.5443    0.0919   -0.7077 H         1 <0>         0.1337
     46 H12        -2.4634    0.2191    1.0659 H         1 <0>         0.1336
     47 H13        -8.1141    2.2975    0.7980 H         1 <0>         0.1026
     48 H14        -6.5119    3.0624    0.6701 H         1 <0>         0.1084
     49 H15        -6.6623    2.6548   -1.9260 H         1 <0>         0.1196
     50 H16        -9.4761    3.0017   -0.8429 H         1 <0>         0.0997
     51 H17        -8.8793    3.2406   -2.5996 H         1 <0>         0.1093
     52 H18        -8.8471   -1.3465    1.0899 H         1 <0>         0.1196
     53 H19        -9.1310    0.4071    0.9782 H         1 <0>         0.1005
     54 H20       -11.2424   -1.8213   -0.2778 H         1 <0>         0.0970
     55 H21       -11.5263   -0.0677   -0.3895 H         1 <0>         0.0980
     56 H22       -12.2075    0.9495   -2.4836 H         1 <0>         0.1347
     57 H23       -13.3234    0.6313   -4.6546 H         1 <0>         0.1332
     58 H24       -13.5474   -1.6285   -5.6059 H         1 <0>         0.1355
     59 H25       -12.6462   -3.5710   -4.3916 H         1 <0>         0.1389
@<TRIPOS>BOND
     1    1    2 1
     2    1   35 1
     3    1   36 1
     4    1   37 1
     5    2    3 1
     6    2   38 1
     7    2   39 1
     8    3    4 1
     9    4    5 2
    10    4    6 1
    11    6   11 ar
    12    6    7 ar
    13    7    8 ar
    14    7   40 1
    15    8    9 ar
    16    8   41 1
    17    9   10 ar
    18    9   42 1
    19   10   11 ar
    20   10   12 1
    21   11   43 1
    22   12   13 am
    23   12   44 1
    24   13   14 2
    25   13   15 1
    26   15   16 1
    27   15   45 1
    28   15   46 1
    29   16   17 1
    30   17   21 1
    31   17   18 2
    32   18   19 1
    33   19   20 2
    34   20   21 1
    35   20   25 1
    36   21   22 1
    37   22   23 1
    38   22   47 1
    39   22   48 1
    40   23   24 2
    41   23   49 1
    42   24   50 1
    43   24   51 1
    44   25   26 1
    45   25   52 1
    46   25   53 1
    47   26   27 1
    48   27   28 1
    49   27   54 1
    50   27   55 1
    51   28   33 ar
    52   28   29 ar
    53   29   30 ar
    54   29   56 1
    55   30   31 ar
    56   30   57 1
    57   31   32 ar
    58   31   58 1
    59   32   33 ar
    60   32   59 1
    61   33   34 1
@<TRIPOS>MOLECULE
ZINC33789475
   68    70     0     0     0
SMALL
USER_CHARGES
4-chloro-N-(3-ethoxypropyl)-N-[2-[(5-methyl-2-furyl)methyl-phenethyl-amino]-2-oxo-ethyl]benzamide
@<TRIPOS>ATOM
      1 C1          1.6176    6.5593   10.2185 C.3       1 <0>        -0.1549
      2 C2          1.6406    6.6874    8.6940 C.3       1 <0>         0.0559
      3 O1          2.0389    5.4421    8.1173 O.3       1 <0>        -0.3875
      4 C3          2.0930    5.4537    6.6894 C.3       1 <0>         0.0610
      5 C4          2.5280    4.0766    6.1843 C.3       1 <0>        -0.1478
      6 C5          2.5861    4.0890    4.6555 C.3       1 <0>         0.0793
      7 N1          3.0026    2.7704    4.1718 N.am      1 <0>        -0.5861
      8 C6          2.0841    1.6328    4.2636 C.3       1 <0>         0.0860
      9 C7          1.1744    1.6234    3.0622 C.2       1 <0>         0.5042
     10 O2          1.3451    2.4226    2.1660 O.2       1 <0>        -0.5160
     11 N2          0.1711    0.7270    2.9835 N.am      1 <0>        -0.6095
     12 C8         -0.7748    0.7823    1.8661 C.3       1 <0>         0.1226
     13 C9         -0.2554   -0.0813    0.7150 C.3       1 <0>        -0.0981
     14 C10        -1.2283   -0.0244   -0.4344 C.ar      1 <0>        -0.0795
     15 C11        -2.2540   -0.9474   -0.5181 C.ar      1 <0>        -0.1160
     16 C12        -3.1494   -0.8921   -1.5698 C.ar      1 <0>        -0.1189
     17 C13        -3.0131    0.0799   -2.5433 C.ar      1 <0>        -0.1235
     18 C14        -1.9841    0.9993   -2.4626 C.ar      1 <0>        -0.1178
     19 C15        -1.0918    0.9473   -1.4081 C.ar      1 <0>        -0.1135
     20 C16         0.0264   -0.3029    4.0154 C.3       1 <0>         0.1856
     21 C17         0.8860   -1.4899    3.6644 C.2       1 <0>        -0.0487
     22 C18         2.1302   -1.7222    4.1198 C.2       1 <0>        -0.1823
     23 C19         2.5572   -2.9397    3.5417 C.2       1 <0>        -0.2112
     24 C20         1.5516   -3.3744    2.7613 C.2       1 <0>        -0.0019
     25 O3          0.5419   -2.4923    2.8395 O.3       1 <0>        -0.1676
     26 C21         1.5568   -4.6373    1.9390 C.3       1 <0>        -0.0799
     27 C22         4.2308    2.6038    3.6425 C.2       1 <0>         0.5682
     28 O4          4.5494    1.5290    3.1724 O.2       1 <0>        -0.5206
     29 C23         5.1902    3.7279    3.6335 C.ar      1 <0>        -0.1272
     30 C24         5.1026    4.7317    4.5998 C.ar      1 <0>        -0.1025
     31 C25         6.0046    5.7748    4.5901 C.ar      1 <0>        -0.1183
     32 C26         6.9885    5.8341    3.6170 C.ar      1 <0>        -0.0110
     33 C27         7.0766    4.8443    2.6520 C.ar      1 <0>        -0.1157
     34 C28         6.1842    3.7931    2.6553 C.ar      1 <0>        -0.0456
     35 Cl1         8.1163    7.1538    3.6072 Cl        1 <0>        -0.0592
     36 H1          1.3110    7.5179   10.6624 H         1 <0>         0.0730
     37 H2          2.6220    6.2927   10.5792 H         1 <0>         0.0641
     38 H3          0.9033    5.7752   10.5098 H         1 <0>         0.0637
     39 H4          0.6362    6.9540    8.3333 H         1 <0>         0.0498
     40 H5          2.3549    7.4715    8.4026 H         1 <0>         0.0503
     41 H6          1.0981    5.6945    6.2867 H         1 <0>         0.0552
     42 H7          2.8168    6.2120    6.3560 H         1 <0>         0.0536
     43 H8          3.5229    3.8358    6.5871 H         1 <0>         0.0843
     44 H9          1.8042    3.3183    6.5176 H         1 <0>         0.0833
     45 H10         1.5912    4.3298    4.2527 H         1 <0>         0.0840
     46 H11         3.3100    4.8472    4.3222 H         1 <0>         0.1154
     47 H12         2.6614    0.6970    4.2937 H         1 <0>         0.1248
     48 H13         1.4812    1.7213    5.1794 H         1 <0>         0.1108
     49 H14        -1.7538    0.4041    2.1954 H         1 <0>         0.0820
     50 H15        -0.8795    1.8230    1.5254 H         1 <0>         0.0880
     51 H16         0.7236    0.2969    0.3857 H         1 <0>         0.0750
     52 H17        -0.1508   -1.1220    1.0556 H         1 <0>         0.0796
     53 H18        -2.3580   -1.7093    0.2402 H         1 <0>         0.1204
     54 H19        -3.9532   -1.6107   -1.6331 H         1 <0>         0.1215
     55 H20        -3.7104    0.1207   -3.3670 H         1 <0>         0.1210
     56 H21        -1.8774    1.7585   -3.2233 H         1 <0>         0.1216
     57 H22        -0.2878    1.6657   -1.3451 H         1 <0>         0.1213
     58 H23         0.3428    0.1045    4.9869 H         1 <0>         0.1128
     59 H24        -1.0261   -0.6171    4.0748 H         1 <0>         0.1052
     60 H25         2.6939   -1.0993    4.7985 H         1 <0>         0.1469
     61 H26         3.5098   -3.4253    3.6941 H         1 <0>         0.1485
     62 H27         0.5996   -4.7312    1.4051 H         1 <0>         0.0766
     63 H28         1.6942   -5.5052    2.6008 H         1 <0>         0.0881
     64 H29         2.3804   -4.5974    1.2109 H         1 <0>         0.0874
     65 H30         4.3330    4.6889    5.3563 H         1 <0>         0.1613
     66 H31         5.9408    6.5494    5.3399 H         1 <0>         0.1414
     67 H32         7.8459    4.8958    1.8958 H         1 <0>         0.1429
     68 H33         6.2543    3.0215    1.9028 H         1 <0>         0.1442
@<TRIPOS>BOND
     1    1    2 1
     2    1   36 1
     3    1   37 1
     4    1   38 1
     5    2    3 1
     6    2   39 1
     7    2   40 1
     8    3    4 1
     9    4    5 1
    10    4   41 1
    11    4   42 1
    12    5    6 1
    13    5   43 1
    14    5   44 1
    15    6    7 1
    16    6   45 1
    17    6   46 1
    18    7    8 1
    19    7   27 am
    20    8    9 1
    21    8   47 1
    22    8   48 1
    23    9   10 2
    24    9   11 am
    25   11   12 1
    26   11   20 1
    27   12   13 1
    28   12   49 1
    29   12   50 1
    30   13   14 1
    31   13   51 1
    32   13   52 1
    33   14   19 ar
    34   14   15 ar
    35   15   16 ar
    36   15   53 1
    37   16   17 ar
    38   16   54 1
    39   17   18 ar
    40   17   55 1
    41   18   19 ar
    42   18   56 1
    43   19   57 1
    44   20   21 1
    45   20   58 1
    46   20   59 1
    47   21   25 1
    48   21   22 2
    49   22   23 1
    50   22   60 1
    51   23   24 2
    52   23   61 1
    53   24   25 1
    54   24   26 1
    55   26   62 1
    56   26   63 1
    57   26   64 1
    58   27   28 2
    59   27   29 1
    60   29   34 ar
    61   29   30 ar
    62   30   31 ar
    63   30   65 1
    64   31   32 ar
    65   31   66 1
    66   32   33 ar
    67   32   35 1
    68   33   34 ar
    69   33   67 1
    70   34   68 1
@<TRIPOS>MOLECULE
ZINC36511564
   76    77     0     0     0
SMALL
USER_CHARGES

@<TRIPOS>ATOM
      1 C1         -0.8277   -3.6779   -2.3713 C.3       1 <0>        -0.1539
      2 C2          0.0753   -4.6841   -1.6549 C.3       1 <0>        -0.1248
      3 C3          0.2393   -4.2703   -0.1911 C.3       1 <0>        -0.1157
      4 C4          1.1423   -5.2765    0.5252 C.3       1 <0>        -0.1236
      5 C5          1.3063   -4.8626    1.9890 C.3       1 <0>        -0.1486
      6 C6          2.2093   -5.8688    2.7054 C.3       1 <0>         0.0850
      7 N1          2.4360   -5.4267    4.0836 N.am      1 <0>        -0.5847
      8 C7          1.4206   -5.6769    5.1095 C.3       1 <0>         0.1349
      9 H1          0.4964   -6.0045    4.6337 H         1 <0>         0.1205
     10 C8          1.9169   -6.7653    6.0635 C.3       1 <0>        -0.0958
     11 C9          2.0624   -8.0839    5.3012 C.3       1 <0>        -0.1202
     12 C10         0.6863   -8.5507    4.8223 C.3       1 <0>        -0.1586
     13 C11         3.2738   -6.3575    6.6408 C.3       1 <0>        -0.1307
     14 C12         3.0817   -5.2075    7.6315 C.3       1 <0>        -0.1608
     15 C13         1.1652   -4.4091    5.8832 C.2       1 <0>         0.5217
     16 O1          1.6652   -3.3656    5.5196 O.2       1 <0>        -0.5111
     17 N2          0.3813   -4.4348    6.9792 N.am      1 <0>        -0.7299
     18 C14         0.0355   -3.1856    7.6620 C.3       1 <0>         0.1513
     19 C15         1.1478   -2.8175    8.6460 C.3       1 <0>        -0.1293
     20 C16         0.7868   -1.5129    9.3591 C.3       1 <0>        -0.1183
     21 C17        -0.5279   -1.6947   10.1203 C.3       1 <0>        -0.1224
     22 C18        -1.6402   -2.0628    9.1363 C.3       1 <0>        -0.1159
     23 C19        -1.2792   -3.3674    8.4232 C.3       1 <0>        -0.1263
     24 C20         3.5788   -4.7898    4.4076 C.2       1 <0>         0.5615
     25 O2          3.7153   -4.3133    5.5175 O.2       1 <0>        -0.4579
     26 C21         4.6662   -4.6706    3.4130 C.ar      1 <0>        -0.1152
     27 C22         4.3655   -4.4342    2.0707 C.ar      1 <0>        -0.0055
     28 C23         5.3850   -4.3236    1.1478 C.ar      1 <0>        -0.0534
     29 C24         6.7030   -4.4469    1.5503 C.ar      1 <0>         0.0213
     30 C25         7.0079   -4.6812    2.8794 C.ar      1 <0>        -0.0498
     31 C26         5.9981   -4.7882    3.8133 C.ar      1 <0>         0.0367
     32 N3          8.4207   -4.8117    3.3010 N.pl3     1 <0>         0.0308
     33 O3          9.3068   -4.7135    2.4844 O.2       1 <0>        -0.1316
     34 O4          8.6886   -5.0165    4.4620 O.3       1 <0>        -0.1303
     35 N4          5.0680   -4.0729   -0.2762 N.pl3     1 <0>         0.0316
     36 O5          3.9168   -3.9654   -0.6293 O.2       1 <0>        -0.1293
     37 O6          5.9604   -3.9758   -1.0860 O.3       1 <0>        -0.1329
     38 H2         -0.3774   -2.6865   -2.3223 H         1 <0>         0.0544
     39 H3         -0.9445   -3.9728   -3.4141 H         1 <0>         0.0535
     40 H4         -1.8043   -3.6577   -1.8878 H         1 <0>         0.0511
     41 H5         -0.3750   -5.6756   -1.7039 H         1 <0>         0.0583
     42 H6          1.0520   -4.7044   -2.1384 H         1 <0>         0.0671
     43 H7          0.6896   -3.2788   -0.1421 H         1 <0>         0.0646
     44 H8         -0.7374   -4.2500    0.2924 H         1 <0>         0.0591
     45 H9          0.6920   -6.2679    0.4763 H         1 <0>         0.0668
     46 H10         2.1190   -5.2967    0.0417 H         1 <0>         0.0724
     47 H11         1.7566   -3.8712    2.0380 H         1 <0>         0.0723
     48 H12         0.3296   -4.8423    2.4725 H         1 <0>         0.0784
     49 H13         1.7292   -6.8473    2.7121 H         1 <0>         0.0945
     50 H14         3.1639   -5.9360    2.1837 H         1 <0>         0.0848
     51 H15         1.2000   -6.8918    6.8748 H         1 <0>         0.0853
     52 H16         2.7156   -7.9362    4.4412 H         1 <0>         0.0633
     53 H17         2.4932   -8.8384    5.9594 H         1 <0>         0.0706
     54 H18         0.7766   -9.5339    4.3606 H         1 <0>         0.0594
     55 H19         0.0064   -8.6094    5.6723 H         1 <0>         0.0587
     56 H20         0.2956   -7.8412    4.0928 H         1 <0>         0.0529
     57 H21         3.7207   -7.2087    7.1545 H         1 <0>         0.0540
     58 H22         3.9304   -6.0351    5.8328 H         1 <0>         0.0758
     59 H23         2.6653   -4.3452    7.1108 H         1 <0>         0.1012
     60 H24         2.3991   -5.5191    8.4221 H         1 <0>         0.0367
     61 H25         4.0440   -4.9388    8.0674 H         1 <0>         0.0463
     62 H26         0.0460   -5.2805    7.3159 H         1 <0>         0.3971
     63 H27        -0.0775   -2.3889    6.9268 H         1 <0>         0.0850
     64 H28         1.2609   -3.6142    9.3812 H         1 <0>         0.0627
     65 H29         2.0845   -2.6880    8.1037 H         1 <0>         0.0732
     66 H30         1.5792   -1.2506   10.0601 H         1 <0>         0.0643
     67 H31         0.6737   -0.7162    8.6238 H         1 <0>         0.0627
     68 H32        -0.4149   -2.4914   10.8555 H         1 <0>         0.0625
     69 H33        -0.7852   -0.7653   10.6283 H         1 <0>         0.0636
     70 H34        -2.5769   -2.1924    9.6786 H         1 <0>         0.0672
     71 H35        -1.7533   -1.2661    8.4010 H         1 <0>         0.0645
     72 H36        -2.0716   -3.6297    7.7222 H         1 <0>         0.0675
     73 H37        -1.1661   -4.1641    9.1585 H         1 <0>         0.0678
     74 H38         3.3371   -4.3385    1.7551 H         1 <0>         0.1920
     75 H39         7.4973   -4.3601    0.8237 H         1 <0>         0.1886
     76 H40         6.2376   -4.9666    4.8512 H         1 <0>         0.1811
@<TRIPOS>BOND
     1    1    2 1
     2    1   38 1
     3    1   39 1
     4    1   40 1
     5    2    3 1
     6    2   41 1
     7    2   42 1
     8    3    4 1
     9    3   43 1
    10    3   44 1
    11    4    5 1
    12    4   45 1
    13    4   46 1
    14    5    6 1
    15    5   47 1
    16    5   48 1
    17    6    7 1
    18    6   49 1
    19    6   50 1
    20    7    8 1
    21    7   24 am
    22    8    9 1
    23    8   10 1
    24    8   15 1
    25   10   11 1
    26   10   13 1
    27   10   51 1
    28   11   12 1
    29   11   52 1
    30   11   53 1
    31   12   54 1
    32   12   55 1
    33   12   56 1
    34   13   14 1
    35   13   57 1
    36   13   58 1
    37   14   59 1
    38   14   60 1
    39   14   61 1
    40   15   16 2
    41   15   17 am
    42   17   18 1
    43   17   62 1
    44   18   23 1
    45   18   19 1
    46   18   63 1
    47   19   20 1
    48   19   64 1
    49   19   65 1
    50   20   21 1
    51   20   66 1
    52   20   67 1
    53   21   22 1
    54   21   68 1
    55   21   69 1
    56   22   23 1
    57   22   70 1
    58   22   71 1
    59   23   72 1
    60   23   73 1
    61   24   25 2
    62   24   26 1
    63   26   31 ar
    64   26   27 ar
    65   27   28 ar
    66   27   74 1
    67   28   29 ar
    68   28   35 1
    69   29   30 ar
    70   29   75 1
    71   30   31 ar
    72   30   32 1
    73   31   76 1
    74   32   33 2
    75   32   34 1
    76   35   36 2
    77   35   37 1
@<TRIPOS>MOLECULE
ZINC36598955
   81    83     0     0     0
SMALL
USER_CHARGES

@<TRIPOS>ATOM
      1 C1         -6.1830    0.8609    3.3312 C.3       1 <0>        -0.1537
      2 C2         -5.0095    0.3011    2.5248 C.3       1 <0>        -0.1202
      3 C3         -5.4814   -0.9019    1.7057 C.3       1 <0>        -0.1185
      4 C4         -4.3078   -1.4618    0.8993 C.3       1 <0>        -0.1094
      5 C5         -4.7797   -2.6648    0.0801 C.3       1 <0>        -0.1419
      6 C6         -3.6062   -3.2246   -0.7263 C.3       1 <0>         0.1351
      7 H1         -3.1700   -2.4305   -1.3321 H         1 <0>         0.1077
      8 C7         -4.0964   -4.3305   -1.6251 C.2       1 <0>         0.5012
      9 O1         -3.6445   -5.4501   -1.5107 O.2       1 <0>        -0.5145
     10 N1         -5.0371   -4.0752   -2.5559 N.am      1 <0>        -0.7258
     11 C8         -5.5136   -5.1502   -3.4297 C.3       1 <0>         0.1754
     12 C9         -4.3841   -5.5854   -4.3655 C.3       1 <0>        -0.1589
     13 C10        -5.9573   -6.3411   -2.5777 C.3       1 <0>        -0.1589
     14 C11        -6.6972   -4.6470   -4.2584 C.3       1 <0>        -0.1151
     15 C12        -7.3953   -3.5086   -3.5117 C.3       1 <0>        -0.0710
     16 C13        -6.5777   -2.2240   -3.6607 C.3       1 <0>        -0.1631
     17 C14        -8.7922   -3.2950   -4.0982 C.3       1 <0>        -0.1407
     18 C15        -7.5142   -3.8684   -2.0293 C.3       1 <0>        -0.1878
     19 N2         -2.5923   -3.7531    0.1896 N.am      1 <0>        -0.5928
     20 C16        -1.2043   -3.2951    0.0890 C.3       1 <0>         0.1905
     21 C17        -0.9946   -2.1214    1.0106 C.2       1 <0>        -0.0410
     22 C18        -0.5105   -2.1821    2.2642 C.2       1 <0>        -0.1900
     23 C19        -0.4820   -0.8572    2.7569 C.2       1 <0>        -0.2130
     24 C20        -0.9504   -0.0661    1.7750 C.2       1 <0>         0.0003
     25 O2         -1.2538   -0.8366    0.7176 O.3       1 <0>        -0.1661
     26 C21        -1.1034    1.4314    1.8471 C.3       1 <0>        -0.0773
     27 C22        -2.9363   -4.6606    1.1248 C.2       1 <0>         0.5330
     28 O3         -4.0853   -5.0397    1.2081 O.2       1 <0>        -0.5026
     29 C23        -1.8933   -5.2042    2.0670 C.3       1 <0>        -0.1035
     30 C24        -2.5322   -6.1942    3.0066 C.ar      1 <0>        -0.0566
     31 C25        -3.0659   -5.7612    4.2062 C.ar      1 <0>        -0.0929
     32 C26        -3.6534   -6.6654    5.0712 C.ar      1 <0>        -0.0986
     33 C27        -3.7083   -8.0089    4.7375 C.ar      1 <0>         0.0326
     34 C28        -3.1707   -8.4451    3.5291 C.ar      1 <0>         0.0338
     35 C29        -2.5885   -7.5324    2.6645 C.ar      1 <0>        -0.0810
     36 O4         -3.3476   -9.7953    3.4350 O.3       1 <0>        -0.3085
     37 C30        -3.6312  -10.2402    4.7747 C.3       1 <0>         0.2131
     38 O5         -4.2221   -9.0859    5.4005 O.3       1 <0>        -0.3095
     39 H2         -5.8469    1.7180    3.9148 H         1 <0>         0.0529
     40 H3         -6.9754    1.1729    2.6509 H         1 <0>         0.0528
     41 H4         -6.5629    0.0907    4.0025 H         1 <0>         0.0532
     42 H5         -4.6297    1.0713    1.8535 H         1 <0>         0.0584
     43 H6         -4.2171   -0.0109    3.2052 H         1 <0>         0.0588
     44 H7         -5.8612   -1.6721    2.3770 H         1 <0>         0.0610
     45 H8         -6.2738   -0.5900    1.0253 H         1 <0>         0.0596
     46 H9         -3.9280   -0.6916    0.2280 H         1 <0>         0.0590
     47 H10        -3.5155   -1.7738    1.5796 H         1 <0>         0.0643
     48 H11        -5.1596   -3.4350    0.7514 H         1 <0>         0.1044
     49 H12        -5.5721   -2.3528   -0.6002 H         1 <0>         0.0702
     50 H13        -5.3985   -3.1797   -2.6474 H         1 <0>         0.4067
     51 H14        -3.5101   -5.8620   -3.7759 H         1 <0>         0.0702
     52 H15        -4.7106   -6.4420   -4.9552 H         1 <0>         0.0640
     53 H16        -4.1271   -4.7622   -5.0321 H         1 <0>         0.0529
     54 H17        -6.4619   -5.9790   -1.6819 H         1 <0>         0.0640
     55 H18        -6.6416   -6.9646   -3.1531 H         1 <0>         0.0560
     56 H19        -5.0847   -6.9280   -2.2911 H         1 <0>         0.0740
     57 H20        -6.3381   -4.2835   -5.2213 H         1 <0>         0.0714
     58 H21        -7.4021   -5.4629   -4.4180 H         1 <0>         0.0789
     59 H22        -5.7795   -2.3834   -4.3856 H         1 <0>         0.0646
     60 H23        -7.2262   -1.4185   -4.0055 H         1 <0>         0.0692
     61 H24        -6.1451   -1.9549   -2.6971 H         1 <0>         0.0601
     62 H25        -9.3747   -4.2102   -3.9921 H         1 <0>         0.0558
     63 H26        -9.2895   -2.4840   -3.5662 H         1 <0>         0.0565
     64 H27        -8.7075   -3.0387   -5.1543 H         1 <0>         0.0554
     65 H28        -6.5294   -4.1219   -1.6369 H         1 <0>         0.0997
     66 H29        -7.9162   -3.0172   -1.4799 H         1 <0>         0.0500
     67 H30        -8.1816   -4.7226   -1.9152 H         1 <0>         0.0549
     68 H31        -0.5329   -4.1052    0.3738 H         1 <0>         0.1155
     69 H32        -0.9948   -2.9933   -0.9372 H         1 <0>         0.0986
     70 H33        -0.2032   -3.0722    2.7930 H         1 <0>         0.1489
     71 H34        -0.1486   -0.5411    3.7343 H         1 <0>         0.1471
     72 H35        -0.1856    1.9074    1.5018 H         1 <0>         0.0817
     73 H36        -1.9345    1.7426    1.2143 H         1 <0>         0.0760
     74 H37        -1.3007    1.7272    2.8775 H         1 <0>         0.0888
     75 H38        -1.1097   -5.7003    1.4944 H         1 <0>         0.1061
     76 H39        -1.4604   -4.3852    2.6415 H         1 <0>         0.1085
     77 H40        -3.0233   -4.7143    4.4683 H         1 <0>         0.1348
     78 H41        -4.0695   -6.3244    6.0076 H         1 <0>         0.1356
     79 H42        -2.1748   -7.8671    1.7247 H         1 <0>         0.1334
     80 H43        -4.3361  -11.0714    4.7611 H         1 <0>         0.1316
     81 H44        -2.7118  -10.5247    5.2865 H         1 <0>         0.0847
@<TRIPOS>BOND
     1    1    2 1
     2    1   39 1
     3    1   40 1
     4    1   41 1
     5    2    3 1
     6    2   42 1
     7    2   43 1
     8    3    4 1
     9    3   44 1
    10    3   45 1
    11    4    5 1
    12    4   46 1
    13    4   47 1
    14    5    6 1
    15    5   48 1
    16    5   49 1
    17    6    7 1
    18    6    8 1
    19    6   19 1
    20    8    9 2
    21    8   10 am
    22   10   11 1
    23   10   50 1
    24   11   12 1
    25   11   13 1
    26   11   14 1
    27   12   51 1
    28   12   52 1
    29   12   53 1
    30   13   54 1
    31   13   55 1
    32   13   56 1
    33   14   15 1
    34   14   57 1
    35   14   58 1
    36   15   16 1
    37   15   17 1
    38   15   18 1
    39   16   59 1
    40   16   60 1
    41   16   61 1
    42   17   62 1
    43   17   63 1
    44   17   64 1
    45   18   65 1
    46   18   66 1
    47   18   67 1
    48   19   20 1
    49   19   27 am
    50   20   21 1
    51   20   68 1
    52   20   69 1
    53   21   25 1
    54   21   22 2
    55   22   23 1
    56   22   70 1
    57   23   24 2
    58   23   71 1
    59   24   25 1
    60   24   26 1
    61   26   72 1
    62   26   73 1
    63   26   74 1
    64   27   28 2
    65   27   29 1
    66   29   30 1
    67   29   75 1
    68   29   76 1
    69   30   35 ar
    70   30   31 ar
    71   31   32 ar
    72   31   77 1
    73   32   33 ar
    74   32   78 1
    75   33   38 1
    76   33   34 ar
    77   34   35 ar
    78   34   36 1
    79   35   79 1
    80   36   37 1
    81   37   38 1
    82   37   80 1
    83   37   81 1
@<TRIPOS>MOLECULE
ZINC33897806
   76    78     0     0     0
SMALL
USER_CHARGES

@<TRIPOS>ATOM
      1 C1         -0.8621    1.2262    0.3369 C.3       1 <0>        -0.1540
      2 C2         -0.5958   -0.2764    0.2257 C.3       1 <0>        -0.1256
      3 C3         -0.0718   -0.8018    1.5637 C.3       1 <0>        -0.1201
      4 C4          0.1945   -2.3043    1.4526 C.3       1 <0>        -0.1153
      5 C5          0.7185   -2.8297    2.7906 C.3       1 <0>        -0.1005
      6 H1          1.5946   -2.2540    3.0891 H         1 <0>         0.0765
      7 C6         -0.3710   -2.6894    3.8556 C.3       1 <0>        -0.1208
      8 C7         -1.6005   -3.4981    3.4370 C.3       1 <0>        -0.1577
      9 C8          1.1023   -4.3036    2.6448 C.3       1 <0>         0.1234
     10 N1          1.6972   -4.7795    3.8961 N.am      1 <0>        -0.7250
     11 C9          2.0191   -6.0806    4.0372 C.2       1 <0>         0.5925
     12 O1          1.8157   -6.8597    3.1257 O.2       1 <0>        -0.5497
     13 C10         2.6173   -6.5591    5.2953 C.2       1 <0>        -0.2321
     14 C11         2.9077   -5.7769    6.4441 C.2       1 <0>        -0.1023
     15 C12         3.4475   -6.6116    7.3681 C.2       1 <0>         0.0517
     16 N2          3.5010   -7.8753    6.8344 N.pl3     1 <0>        -0.4219
     17 C13         2.9961   -7.8520    5.5837 C.2       1 <0>         0.1225
     18 C14         2.8711   -9.0358    4.6595 C.3       1 <0>        -0.0956
     19 C15         4.0196   -9.0630    7.5175 C.3       1 <0>         0.0909
     20 C16         2.9184   -9.6724    8.3875 C.3       1 <0>        -0.1133
     21 C17         3.4518  -10.8942    9.0902 C.2       1 <0>        -0.1220
     22 C18         3.9059  -10.7522   10.2940 C.2       1 <0>        -0.1481
     23 C19         4.4772  -11.8713   11.1146 C.3       1 <0>        -0.0917
     24 C20         4.0646  -13.2215   10.5245 C.3       1 <0>        -0.1225
     25 C21         4.3631  -13.2050    9.0200 C.3       1 <0>        -0.1208
     26 C22         3.4179  -12.2009    8.3530 C.3       1 <0>        -0.0842
     27 C23         3.9023   -6.2247    8.7222 C.2       1 <0>         0.1227
     28 C24         4.3181   -7.1869    9.6256 C.2       1 <0>        -0.2888
     29 S1          4.7224   -6.2649   10.9748 S.3       1 <0>         0.2549
     30 C25         4.3329   -4.6564   10.3078 C.2       1 <0>         0.0108
     31 N3          3.9228   -4.9607    9.0841 N.2       1 <0>        -0.3962
     32 C26         4.4434   -3.3362   10.9470 C.2       1 <0>         0.5621
     33 O2          4.1285   -2.3355   10.3331 O.2       1 <0>        -0.4600
     34 O3          4.8940   -3.2362   12.2139 O.3       1 <0>        -0.3426
     35 C27         4.9756   -1.9230   12.7716 C.3       1 <0>         0.0628
     36 C28         5.5037   -2.0096   14.2049 C.3       1 <0>        -0.1534
     37 H2          0.0640    1.7414    0.5920 H         1 <0>         0.0532
     38 H3         -1.2354    1.6005   -0.6164 H         1 <0>         0.0531
     39 H4         -1.6045    1.4071    1.1141 H         1 <0>         0.0531
     40 H5         -1.5218   -0.7916   -0.0294 H         1 <0>         0.0605
     41 H6          0.1466   -0.4573   -0.5515 H         1 <0>         0.0605
     42 H7          0.8543   -0.2866    1.8189 H         1 <0>         0.0610
     43 H8         -0.8142   -0.6208    2.3410 H         1 <0>         0.0649
     44 H9         -0.7316   -2.8195    1.1975 H         1 <0>         0.0700
     45 H10         0.9369   -2.4852    0.6753 H         1 <0>         0.0644
     46 H11         0.0025   -3.0632    4.8089 H         1 <0>         0.0608
     47 H12        -0.6448   -1.6394    3.9592 H         1 <0>         0.0670
     48 H13        -2.3779   -3.3955    4.1942 H         1 <0>         0.0519
     49 H14        -1.9720   -3.1265    2.4821 H         1 <0>         0.0585
     50 H15        -1.3275   -4.5486    3.3367 H         1 <0>         0.0572
     51 H16         0.2117   -4.8904    2.4197 H         1 <0>         0.0741
     52 H17         1.8236   -4.4128    1.8349 H         1 <0>         0.0638
     53 H18         1.8595   -4.1581    4.6230 H         1 <0>         0.4001
     54 H19         2.7324   -4.7176    6.5605 H         1 <0>         0.1498
     55 H20         3.7795   -9.1296    4.0644 H         1 <0>         0.0802
     56 H21         2.7267   -9.9421    5.2476 H         1 <0>         0.0643
     57 H22         2.0167   -8.8918    3.9982 H         1 <0>         0.1052
     58 H23         4.3448   -9.7946    6.7778 H         1 <0>         0.1038
     59 H24         4.8646   -8.7810    8.1456 H         1 <0>         0.0973
     60 H25         2.5931   -8.9408    9.1272 H         1 <0>         0.0795
     61 H26         2.0734   -9.9544    7.7594 H         1 <0>         0.0861
     62 H27         3.8719   -9.7670   10.7352 H         1 <0>         0.0997
     63 H28         5.5647  -11.7966   11.1201 H         1 <0>         0.0760
     64 H29         4.1067  -11.7953   12.1369 H         1 <0>         0.0741
     65 H30         4.6332  -14.0193   11.0022 H         1 <0>         0.0670
     66 H31         2.9982  -13.3808   10.6847 H         1 <0>         0.0652
     67 H32         5.3979  -12.9048    8.8550 H         1 <0>         0.0655
     68 H33         4.1954  -14.1977    8.6023 H         1 <0>         0.0679
     69 H34         2.4016  -12.5947    8.3623 H         1 <0>         0.0770
     70 H35         3.7323  -12.0420    7.3215 H         1 <0>         0.0717
     71 H36         4.3695   -8.2580    9.4977 H         1 <0>         0.2151
     72 H37         5.6520   -1.3147   12.1713 H         1 <0>         0.0750
     73 H38         3.9851   -1.4681   12.7762 H         1 <0>         0.0750
     74 H39         6.4942   -2.4646   14.2003 H         1 <0>         0.0693
     75 H40         5.5659   -1.0080   14.6304 H         1 <0>         0.0852
     76 H41         4.8273   -2.6180   14.8053 H         1 <0>         0.0693
@<TRIPOS>BOND
     1    1    2 1
     2    1   37 1
     3    1   38 1
     4    1   39 1
     5    2    3 1
     6    2   40 1
     7    2   41 1
     8    3    4 1
     9    3   42 1
    10    3   43 1
    11    4    5 1
    12    4   44 1
    13    4   45 1
    14    5    6 1
    15    5    7 1
    16    5    9 1
    17    7    8 1
    18    7   46 1
    19    7   47 1
    20    8   48 1
    21    8   49 1
    22    8   50 1
    23    9   10 1
    24    9   51 1
    25    9   52 1
    26   10   11 am
    27   10   53 1
    28   11   12 2
    29   11   13 1
    30   13   17 2
    31   13   14 1
    32   14   15 2
    33   14   54 1
    34   15   16 1
    35   15   27 1
    36   16   17 1
    37   16   19 1
    38   17   18 1
    39   18   55 1
    40   18   56 1
    41   18   57 1
    42   19   20 1
    43   19   58 1
    44   19   59 1
    45   20   21 1
    46   20   60 1
    47   20   61 1
    48   21   26 1
    49   21   22 2
    50   22   23 1
    51   22   62 1
    52   23   24 1
    53   23   63 1
    54   23   64 1
    55   24   25 1
    56   24   65 1
    57   24   66 1
    58   25   26 1
    59   25   67 1
    60   25   68 1
    61   26   69 1
    62   26   70 1
    63   27   31 1
    64   27   28 2
    65   28   29 1
    66   28   71 1
    67   29   30 1
    68   30   31 2
    69   30   32 1
    70   32   33 2
    71   32   34 1
    72   34   35 1
    73   35   36 1
    74   35   72 1
    75   35   73 1
    76   36   74 1
    77   36   75 1
    78   36   76 1
@<TRIPOS>MOLECULE
ZINC20731575
   80    83     0     0     0
SMALL
USER_CHARGES
ethyl 4-[[3-morpholinopropyl-[(1-propyl-3,4-dihydro-2H-quinolin-6-yl)methyl]carbamothioyl]amino]benzoate
@<TRIPOS>ATOM
      1 C1         -2.5149    4.7746    2.0541 C.3       1 <0>        -0.1537
      2 C2         -1.1248    4.5690    1.4490 C.3       1 <0>        -0.1320
      3 C3         -0.9819    3.1195    0.9806 C.3       1 <0>         0.0553
      4 N1          0.3528    2.9220    0.3995 N.pl3     1 <0>        -0.4937
      5 C4          1.3779    3.5967    1.1983 C.3       1 <0>         0.0506
      6 C5          2.7481    3.3356    0.5606 C.3       1 <0>        -0.1240
      7 C6          3.0737    1.8503    0.7341 C.3       1 <0>        -0.0759
      8 C7          1.8803    1.0193    0.3352 C.ar      1 <0>        -0.1345
      9 C8          0.6163    1.5674    0.2021 C.ar      1 <0>         0.1410
     10 C9         -0.4533    0.7443   -0.1540 C.ar      1 <0>        -0.1674
     11 C10        -0.2541   -0.6013   -0.3773 C.ar      1 <0>        -0.0593
     12 C11         1.0117   -1.1426   -0.2485 C.ar      1 <0>        -0.1458
     13 C12         2.0732   -0.3337    0.1063 C.ar      1 <0>        -0.0772
     14 C13         1.2324   -2.6129   -0.4946 C.3       1 <0>         0.1550
     15 N2          1.5509   -2.8290   -1.9082 N.pl3     1 <0>        -0.5525
     16 C14         2.9445   -2.7946   -2.3586 C.3       1 <0>         0.0896
     17 C15         3.5429   -4.2002   -2.2732 C.3       1 <0>        -0.1383
     18 C16         4.9983   -4.1643   -2.7436 C.3       1 <0>         0.0560
     19 N3          5.5729   -5.5138   -2.6616 N.3       1 <0>        -0.5354
     20 C17         5.6748   -5.9590   -1.2642 C.3       1 <0>         0.0133
     21 C18         6.2210   -7.3887   -1.2283 C.3       1 <0>         0.0604
     22 O1          7.4815   -7.4292   -1.9027 O.3       1 <0>        -0.3839
     23 C19         7.4188   -7.0026   -3.2663 C.3       1 <0>         0.0606
     24 C20         6.8847   -5.5690   -3.3229 C.3       1 <0>         0.0167
     25 C21         0.5618   -3.0594   -2.7942 C.2       1 <0>         0.5634
     26 S1         -1.0668   -3.0996   -2.2678 S.2       1 <0>        -0.6168
     27 N4          0.8548   -3.2583   -4.0946 N.pl3     1 <0>        -0.6472
     28 C22        -0.1715   -3.4070   -5.0251 C.ar      1 <0>         0.1669
     29 C23        -1.2529   -4.2352   -4.7395 C.ar      1 <0>        -0.0854
     30 C24        -2.2713   -4.3801   -5.6539 C.ar      1 <0>        -0.0530
     31 C25        -2.2129   -3.7029   -6.8759 C.ar      1 <0>        -0.1257
     32 C26        -1.1221   -2.8762   -7.1619 C.ar      1 <0>        -0.0484
     33 C27        -0.1101   -2.7315   -6.2404 C.ar      1 <0>        -0.1373
     34 C28        -3.2991   -3.8600   -7.8603 C.2       1 <0>         0.5109
     35 O2         -3.2471   -3.2706   -8.9216 O.2       1 <0>        -0.5079
     36 O3         -4.3496   -4.6572   -7.5831 O.3       1 <0>        -0.3523
     37 C29        -5.3818   -4.7644   -8.5986 C.3       1 <0>         0.0611
     38 C30        -6.4839   -5.7056   -8.1082 C.3       1 <0>        -0.1557
     39 H1         -2.6177    5.8167    2.3909 H         1 <0>         0.0600
     40 H2         -2.6454    4.0977    2.9113 H         1 <0>         0.0555
     41 H3         -3.2809    4.5572    1.2952 H         1 <0>         0.0581
     42 H4         -0.9943    5.2459    0.5918 H         1 <0>         0.0730
     43 H5         -0.3587    4.7864    2.2079 H         1 <0>         0.0672
     44 H6         -1.1124    2.4426    1.8378 H         1 <0>         0.0491
     45 H7         -1.7480    2.9021    0.2218 H         1 <0>         0.0847
     46 H8          1.1747    4.6776    1.2182 H         1 <0>         0.0907
     47 H9          1.3619    3.2016    2.2248 H         1 <0>         0.0461
     48 H10         2.7106    3.5945   -0.5079 H         1 <0>         0.0756
     49 H11         3.5090    3.9527    1.0609 H         1 <0>         0.0776
     50 H12         3.9314    1.5862    0.0980 H         1 <0>         0.0740
     51 H13         3.3225    1.6500    1.7867 H         1 <0>         0.0728
     52 H14        -1.4423    1.1652   -0.2595 H         1 <0>         0.1242
     53 H15        -1.0863   -1.2324   -0.6522 H         1 <0>         0.1500
     54 H16         3.0611   -0.7587    0.2059 H         1 <0>         0.1150
     55 H17         2.0672   -2.9676    0.1277 H         1 <0>         0.0906
     56 H18         0.3196   -3.1692   -0.2352 H         1 <0>         0.1223
     57 H19         2.9848   -2.4415   -3.3996 H         1 <0>         0.0805
     58 H20         3.5204   -2.1113   -1.7172 H         1 <0>         0.0995
     59 H21         3.5026   -4.5532   -1.2322 H         1 <0>         0.0777
     60 H22         2.9670   -4.8835   -2.9146 H         1 <0>         0.0790
     61 H23         5.0385   -3.8113   -3.7846 H         1 <0>         0.0800
     62 H24         5.5742   -3.4810   -2.1022 H         1 <0>         0.0412
     63 H25         6.3546   -5.2908   -0.7152 H         1 <0>         0.0446
     64 H26         4.6790   -5.9330   -0.7975 H         1 <0>         0.0888
     65 H27         6.3519   -7.7050   -0.1829 H         1 <0>         0.1007
     66 H28         5.5127   -8.0645   -1.7299 H         1 <0>         0.0613
     67 H29         8.4254   -7.0386   -3.7084 H         1 <0>         0.1012
     68 H30         6.7475   -7.6685   -3.8283 H         1 <0>         0.0616
     69 H31         6.7798   -5.2559   -4.3722 H         1 <0>         0.0885
     70 H32         7.5840   -4.8945   -2.8072 H         1 <0>         0.0449
     71 H33         1.9042   -3.3032   -4.4213 H         1 <0>         0.4300
     72 H34        -1.2951   -4.7617   -3.7974 H         1 <0>         0.1573
     73 H35        -3.1125   -5.0192   -5.4297 H         1 <0>         0.1427
     74 H36        -1.0740   -2.3514   -8.1046 H         1 <0>         0.1413
     75 H37         0.7325   -2.0928   -6.4605 H         1 <0>         0.1323
     76 H38        -5.8090   -3.7697   -8.7936 H         1 <0>         0.0721
     77 H39        -4.9442   -5.1636   -9.5255 H         1 <0>         0.0720
     78 H40        -7.2659   -5.7868   -8.8775 H         1 <0>         0.0819
     79 H41        -6.9215   -5.3063   -7.1813 H         1 <0>         0.0687
     80 H42        -6.0567   -6.7003   -7.9132 H         1 <0>         0.0682
@<TRIPOS>BOND
     1    1    2 1
     2    1   39 1
     3    1   40 1
     4    1   41 1
     5    2    3 1
     6    2   42 1
     7    2   43 1
     8    3    4 1
     9    3   44 1
    10    3   45 1
    11    4    9 1
    12    4    5 1
    13    5    6 1
    14    5   46 1
    15    5   47 1
    16    6    7 1
    17    6   48 1
    18    6   49 1
    19    7    8 1
    20    7   50 1
    21    7   51 1
    22    8   13 ar
    23    8    9 ar
    24    9   10 ar
    25   10   11 ar
    26   10   52 1
    27   11   12 ar
    28   11   53 1
    29   12   13 ar
    30   12   14 1
    31   13   54 1
    32   14   15 1
    33   14   55 1
    34   14   56 1
    35   15   16 1
    36   15   25 1
    37   16   17 1
    38   16   57 1
    39   16   58 1
    40   17   18 1
    41   17   59 1
    42   17   60 1
    43   18   19 1
    44   18   61 1
    45   18   62 1
    46   19   24 1
    47   19   20 1
    48   20   21 1
    49   20   63 1
    50   20   64 1
    51   21   22 1
    52   21   65 1
    53   21   66 1
    54   22   23 1
    55   23   24 1
    56   23   67 1
    57   23   68 1
    58   24   69 1
    59   24   70 1
    60   25   26 2
    61   25   27 1
    62   27   28 1
    63   27   71 1
    64   28   33 ar
    65   28   29 ar
    66   29   30 ar
    67   29   72 1
    68   30   31 ar
    69   30   73 1
    70   31   32 ar
    71   31   34 1
    72   32   33 ar
    73   32   74 1
    74   33   75 1
    75   34   35 2
    76   34   36 1
    77   36   37 1
    78   37   38 1
    79   37   76 1
    80   37   77 1
    81   38   78 1
    82   38   79 1
    83   38   80 1
@<TRIPOS>MOLECULE
ZINC35796043
   78    80     0     0     0
SMALL
USER_CHARGES

@<TRIPOS>ATOM
      1 C1          1.8005   -2.3558    2.5986 C.3       1 <0>        -0.1500
      2 C2          2.1911   -1.1326    1.7665 C.3       1 <0>        -0.1370
      3 C3          0.9284   -0.4626    1.2210 C.3       1 <0>         0.1363
      4 H1          0.3438   -1.1915    0.6597 H         1 <0>         0.1060
      5 C4          1.3220    0.6938    0.2998 C.3       1 <0>        -0.1596
      6 N1          0.1281    0.0514    2.3353 N.am      1 <0>        -0.5858
      7 C5          0.7196    0.9935    3.2886 C.3       1 <0>         0.0819
      8 C6          0.3706    2.4027    2.8844 C.2       1 <0>         0.4924
      9 O1         -0.3740    2.5980    1.9473 O.2       1 <0>        -0.4994
     10 N2          0.8862    3.4460    3.5643 N.am      1 <0>        -0.6086
     11 C7          0.5470    4.8160    3.1714 C.3       1 <0>         0.1223
     12 C8         -0.7027    5.2692    3.9289 C.3       1 <0>        -0.0899
     13 C9         -1.0516    6.6784    3.5248 C.ar      1 <0>        -0.0794
     14 C10        -0.5174    7.7476    4.2197 C.ar      1 <0>        -0.1121
     15 C11        -0.8344    9.0422    3.8528 C.ar      1 <0>        -0.1710
     16 C12        -1.6889    9.2705    2.7862 C.ar      1 <0>         0.0976
     17 C13        -2.2262    8.1944    2.0864 C.ar      1 <0>         0.1028
     18 C14        -1.9006    6.8993    2.4563 C.ar      1 <0>        -0.1638
     19 O2         -3.0653    8.4133    1.0389 O.3       1 <0>        -0.3063
     20 C15        -3.5789    7.2613    0.3672 C.3       1 <0>         0.0262
     21 O3         -2.0021   10.5434    2.4243 O.3       1 <0>        -0.3069
     22 C16        -1.4140   11.5984    3.1880 C.3       1 <0>         0.0262
     23 C17         1.7857    3.2101    4.6963 C.3       1 <0>         0.1898
     24 C18         3.2087    3.1525    4.2036 C.2       1 <0>        -0.1790
     25 C19         4.1083    4.1580    4.0734 C.2       1 <0>        -0.1303
     26 C20         5.3725    3.8687    3.5950 C.2       1 <0>        -0.1603
     27 C21         5.6753    2.5880    3.2703 C.2       1 <0>        -0.1596
     28 S1          4.1497    1.7409    3.6474 S.3       1 <0>         0.0333
     29 C22        -1.1524   -0.3424    2.4833 C.2       1 <0>         0.5410
     30 O4         -1.6150   -1.1896    1.7491 O.2       1 <0>        -0.5251
     31 C23        -2.0092    0.2700    3.5612 C.3       1 <0>        -0.0630
     32 H2         -1.4505    1.0585    4.0654 H         1 <0>         0.0849
     33 C24        -2.3998   -0.8068    4.5755 C.3       1 <0>        -0.1113
     34 C25        -1.1474   -1.3012    5.3023 C.3       1 <0>        -0.1606
     35 C26        -3.2539    0.8528    2.9430 C.ar      1 <0>        -0.0751
     36 C27        -4.1289    0.0368    2.2506 C.ar      1 <0>        -0.0932
     37 C28        -5.2706    0.5715    1.6835 C.ar      1 <0>        -0.1232
     38 C29        -5.5375    1.9220    1.8092 C.ar      1 <0>        -0.1167
     39 C30        -4.6629    2.7378    2.5024 C.ar      1 <0>        -0.1236
     40 C31        -3.5234    2.2024    3.0731 C.ar      1 <0>        -0.0965
     41 H3          1.1783   -3.0198    1.9986 H         1 <0>         0.0576
     42 H4          2.7007   -2.8851    2.9110 H         1 <0>         0.0556
     43 H5          1.2444   -2.0337    3.4790 H         1 <0>         0.0521
     44 H6          2.7357   -0.4260    2.3927 H         1 <0>         0.0659
     45 H7          2.8242   -1.4452    0.9361 H         1 <0>         0.0774
     46 H8          1.8413    0.3012   -0.5745 H         1 <0>         0.0648
     47 H9          0.4256    1.2259   -0.0187 H         1 <0>         0.0687
     48 H10         1.9794    1.3780    0.8361 H         1 <0>         0.0507
     49 H11         0.3286    0.7943    4.2864 H         1 <0>         0.1064
     50 H12         1.8030    0.8743    3.2925 H         1 <0>         0.1109
     51 H13         1.3780    5.4792    3.4117 H         1 <0>         0.0801
     52 H14         0.3539    4.8492    2.0992 H         1 <0>         0.0876
     53 H15        -1.5337    4.6060    3.6887 H         1 <0>         0.0767
     54 H16        -0.5096    5.2360    5.0012 H         1 <0>         0.0759
     55 H17         0.1488    7.5710    5.0512 H         1 <0>         0.1261
     56 H18        -0.4163    9.8756    4.3978 H         1 <0>         0.1352
     57 H19        -2.3133    6.0624    1.9126 H         1 <0>         0.1361
     58 H20        -2.7518    6.6777   -0.0371 H         1 <0>         0.0557
     59 H21        -4.1435    6.6513    1.0723 H         1 <0>         0.0551
     60 H22        -4.2329    7.5762   -0.4459 H         1 <0>         0.1013
     61 H23        -0.3280   11.5336    3.1210 H         1 <0>         0.0547
     62 H24        -1.7456   12.5596    2.7954 H         1 <0>         0.1010
     63 H25        -1.7198   11.5065    4.2302 H         1 <0>         0.0549
     64 H26         1.6833    4.0214    5.4170 H         1 <0>         0.1103
     65 H27         1.5282    2.2649    5.1742 H         1 <0>         0.0941
     66 H28         3.8412    5.1702    4.3390 H         1 <0>         0.1337
     67 H29         6.1079    4.6515    3.4814 H         1 <0>         0.1359
     68 H30         6.6006    2.1842    2.8869 H         1 <0>         0.1869
     69 H31        -3.0983   -0.3876    5.2997 H         1 <0>         0.0776
     70 H32        -2.8716   -1.6410    4.0563 H         1 <0>         0.0779
     71 H33        -0.4141   -1.6423    4.5715 H         1 <0>         0.0561
     72 H34        -0.7231   -0.4870    5.8899 H         1 <0>         0.0551
     73 H35        -1.4127   -2.1264    5.9631 H         1 <0>         0.0652
     74 H36        -3.9204   -1.0183    2.1524 H         1 <0>         0.1303
     75 H37        -5.9539   -0.0659    1.1420 H         1 <0>         0.1212
     76 H38        -6.4291    2.3398    1.3656 H         1 <0>         0.1198
     77 H39        -4.8713    3.7929    2.6003 H         1 <0>         0.1185
     78 H40        -2.8420    2.8390    3.6179 H         1 <0>         0.1138
@<TRIPOS>BOND
     1    1    2 1
     2    1   41 1
     3    1   42 1
     4    1   43 1
     5    2    3 1
     6    2   44 1
     7    2   45 1
     8    3    4 1
     9    3    5 1
    10    3    6 1
    11    5   46 1
    12    5   47 1
    13    5   48 1
    14    6    7 1
    15    6   29 am
    16    7    8 1
    17    7   49 1
    18    7   50 1
    19    8    9 2
    20    8   10 am
    21   10   11 1
    22   10   23 1
    23   11   12 1
    24   11   51 1
    25   11   52 1
    26   12   13 1
    27   12   53 1
    28   12   54 1
    29   13   18 ar
    30   13   14 ar
    31   14   15 ar
    32   14   55 1
    33   15   16 ar
    34   15   56 1
    35   16   17 ar
    36   16   21 1
    37   17   18 ar
    38   17   19 1
    39   18   57 1
    40   19   20 1
    41   20   58 1
    42   20   59 1
    43   20   60 1
    44   21   22 1
    45   22   61 1
    46   22   62 1
    47   22   63 1
    48   23   24 1
    49   23   64 1
    50   23   65 1
    51   24   28 1
    52   24   25 2
    53   25   26 1
    54   25   66 1
    55   26   27 2
    56   26   67 1
    57   27   28 1
    58   27   68 1
    59   29   30 2
    60   29   31 1
    61   31   32 1
    62   31   33 1
    63   31   35 1
    64   33   34 1
    65   33   69 1
    66   33   70 1
    67   34   71 1
    68   34   72 1
    69   34   73 1
    70   35   40 ar
    71   35   36 ar
    72   36   37 ar
    73   36   74 1
    74   37   38 ar
    75   37   75 1
    76   38   39 ar
    77   38   76 1
    78   39   40 ar
    79   39   77 1
    80   40   78 1
@<TRIPOS>MOLECULE
ZINC36517142
   71    72     0     0     0
SMALL
USER_CHARGES

@<TRIPOS>ATOM
      1 C1          0.2287    1.9530   -0.5899 C.3       1 <0>        -0.1551
      2 C2          0.2671    0.4349   -0.4027 C.3       1 <0>        -0.1255
      3 C3          0.8684   -0.2175   -1.6492 C.3       1 <0>        -0.1198
      4 C4          0.9067   -1.7356   -1.4621 C.3       1 <0>        -0.1187
      5 C5          1.5080   -2.3880   -2.7085 C.3       1 <0>        -0.1410
      6 C6          1.5464   -3.9061   -2.5214 C.3       1 <0>         0.1088
      7 N1          2.1222   -4.5308   -3.7148 N.am      1 <0>        -0.6028
      8 C7          3.5680   -4.7510   -3.8013 C.3       1 <0>         0.1771
      9 H1          4.0416   -4.4218   -2.8764 H         1 <0>         0.1314
     10 C8          4.1274   -3.9655   -4.9593 C.ar      1 <0>        -0.0721
     11 C9          4.0951   -4.4971   -6.2349 C.ar      1 <0>        -0.0849
     12 C10         4.6083   -3.7766   -7.2972 C.ar      1 <0>        -0.0633
     13 C11         5.1533   -2.5242   -7.0839 C.ar      1 <0>        -0.0356
     14 C12         5.1847   -1.9922   -5.8084 C.ar      1 <0>        -0.0625
     15 C13         4.6677   -2.7110   -4.7468 C.ar      1 <0>        -0.0941
     16 N2          5.7036   -1.7531   -8.2212 N.pl3     1 <0>         0.0303
     17 O1          5.6765   -2.2185   -9.3367 O.2       1 <0>        -0.1528
     18 O2          6.1803   -0.6578   -8.0346 O.3       1 <0>        -0.1553
     19 C14         3.8410   -6.2182   -4.0109 C.2       1 <0>         0.5083
     20 O3          2.9187   -7.0026   -4.0811 O.2       1 <0>        -0.4808
     21 N3          5.1101   -6.6585   -4.1202 N.am      1 <0>        -0.7084
     22 C15         5.3755   -8.0848   -4.3240 C.3       1 <0>        -0.3595
     23 S1          5.5656   -8.4172   -6.0971 S.o2      1 <0>         2.4663
     24 O4          5.8862   -9.7856   -6.3069 O.2       1 <0>        -0.9302
     25 O5          4.5139   -7.7996   -6.8263 O.2       1 <0>        -0.9105
     26 C16         7.0174   -7.5377   -6.5697 C.ar      1 <0>        -0.6656
     27 C17         6.9222   -6.2279   -7.0015 C.ar      1 <0>        -0.0232
     28 C18         8.0611   -5.5379   -7.3722 C.ar      1 <0>        -0.1388
     29 C19         9.2954   -6.1574   -7.3107 C.ar      1 <0>        -0.0239
     30 C20         9.3907   -7.4668   -6.8780 C.ar      1 <0>        -0.1384
     31 C21         8.2522   -8.1555   -6.5032 C.ar      1 <0>        -0.0189
     32 C22        10.5369   -5.4054   -7.7158 C.3       1 <0>        -0.1282
     33 C23         1.3218   -4.9030   -4.7333 C.2       1 <0>         0.5186
     34 O6          1.7843   -5.5045   -5.6795 O.2       1 <0>        -0.5001
     35 C24        -0.1479   -4.5718   -4.6965 C.3       1 <0>        -0.1355
     36 C25        -0.8223   -5.1028   -5.9631 C.3       1 <0>        -0.1105
     37 C26        -2.3144   -4.7665   -5.9256 C.3       1 <0>        -0.1528
     38 H2          1.2414    2.3260   -0.7426 H         1 <0>         0.0534
     39 H3         -0.3831    2.1966   -1.4585 H         1 <0>         0.0537
     40 H4         -0.1997    2.4178    0.2981 H         1 <0>         0.0542
     41 H5          0.8788    0.1913    0.4659 H         1 <0>         0.0608
     42 H6         -0.7457    0.0619   -0.2501 H         1 <0>         0.0612
     43 H7          0.2566    0.0261   -2.5178 H         1 <0>         0.0617
     44 H8          1.8811    0.1555   -1.8019 H         1 <0>         0.0612
     45 H9          1.5185   -1.9792   -0.5934 H         1 <0>         0.0649
     46 H10        -0.1060   -2.1086   -1.3094 H         1 <0>         0.0659
     47 H11         0.8963   -2.1444   -3.5771 H         1 <0>         0.0685
     48 H12         2.5208   -2.0150   -2.8612 H         1 <0>         0.0666
     49 H13         2.1582   -4.1497   -1.6527 H         1 <0>         0.0826
     50 H14         0.5337   -4.2791   -2.3687 H         1 <0>         0.0891
     51 H15         3.6693   -5.4755   -6.4016 H         1 <0>         0.1842
     52 H16         4.5837   -4.1922   -8.2937 H         1 <0>         0.1568
     53 H17         5.6109   -1.0140   -5.6417 H         1 <0>         0.1564
     54 H18         4.6889   -2.2938   -3.7509 H         1 <0>         0.1488
     55 H19         5.8477   -6.0311   -4.0640 H         1 <0>         0.4119
     56 H20         6.2914   -8.3621   -3.8021 H         1 <0>         0.1465
     57 H21         4.5429   -8.6690   -3.9320 H         1 <0>         0.1568
     58 H22         5.9579   -5.7439   -7.0495 H         1 <0>         0.1352
     59 H23         7.9867   -4.5149   -7.7103 H         1 <0>         0.1264
     60 H24        10.3549   -7.9510   -6.8303 H         1 <0>         0.1354
     61 H25         8.3270   -9.1773   -6.1616 H         1 <0>         0.1429
     62 H26        10.9529   -4.8958   -6.8467 H         1 <0>         0.0806
     63 H27        11.2722   -6.1053   -8.1130 H         1 <0>         0.0756
     64 H28        10.2837   -4.6714   -8.4807 H         1 <0>         0.0744
     65 H29        -0.6029   -5.0352   -3.8211 H         1 <0>         0.0933
     66 H30        -0.2755   -3.4906   -4.6429 H         1 <0>         0.0921
     67 H31        -0.3672   -4.6394   -6.8385 H         1 <0>         0.0683
     68 H32        -0.6947   -6.1839   -6.0167 H         1 <0>         0.0722
     69 H33        -2.7948   -5.1448   -6.8280 H         1 <0>         0.0589
     70 H34        -2.7694   -5.2299   -5.0502 H         1 <0>         0.0544
     71 H35        -2.4420   -3.6853   -5.8720 H         1 <0>         0.0533
@<TRIPOS>BOND
     1    1    2 1
     2    1   38 1
     3    1   39 1
     4    1   40 1
     5    2    3 1
     6    2   41 1
     7    2   42 1
     8    3    4 1
     9    3   43 1
    10    3   44 1
    11    4    5 1
    12    4   45 1
    13    4   46 1
    14    5    6 1
    15    5   47 1
    16    5   48 1
    17    6    7 1
    18    6   49 1
    19    6   50 1
    20    7    8 1
    21    7   33 am
    22    8    9 1
    23    8   10 1
    24    8   19 1
    25   10   15 ar
    26   10   11 ar
    27   11   12 ar
    28   11   51 1
    29   12   13 ar
    30   12   52 1
    31   13   14 ar
    32   13   16 1
    33   14   15 ar
    34   14   53 1
    35   15   54 1
    36   16   17 2
    37   16   18 1
    38   19   20 2
    39   19   21 am
    40   21   22 1
    41   21   55 1
    42   22   23 1
    43   22   56 1
    44   22   57 1
    45   23   24 2
    46   23   25 2
    47   23   26 1
    48   26   31 ar
    49   26   27 ar
    50   27   28 ar
    51   27   58 1
    52   28   29 ar
    53   28   59 1
    54   29   30 ar
    55   29   32 1
    56   30   31 ar
    57   30   60 1
    58   31   61 1
    59   32   62 1
    60   32   63 1
    61   32   64 1
    62   33   34 2
    63   33   35 1
    64   35   36 1
    65   35   65 1
    66   35   66 1
    67   36   37 1
    68   36   67 1
    69   36   68 1
    70   37   69 1
    71   37   70 1
    72   37   71 1
@<TRIPOS>MOLECULE
ZINC40019701
   76    79     0     0     0
SMALL
USER_CHARGES

@<TRIPOS>ATOM
      1 C1         -0.3568    1.4554   -0.1699 C.3       1 <0>        -0.1569
      2 C2         -0.1822   -0.0645   -0.1874 C.3       1 <0>        -0.1221
      3 C3          0.5198   -0.5120    1.0963 C.3       1 <0>        -0.1466
      4 C4          0.6944   -2.0319    1.0789 C.3       1 <0>        -0.0173
      5 N1          1.4856   -2.4473    2.2448 N.4       1 <0>        -0.3847
      6 C5          0.7289   -2.1719    3.4734 C.3       1 <0>        -0.0126
      7 C6          1.6068   -2.4697    4.6906 C.3       1 <0>        -0.1509
      8 C7          0.8702   -2.0521    5.9650 C.3       1 <0>        -0.1192
      9 C8          1.7481   -2.3499    7.1822 C.3       1 <0>        -0.1587
     10 C9          1.7693   -3.8860    2.1566 C.3       1 <0>        -0.0097
     11 C10         2.6625   -4.1563    0.9441 C.3       1 <0>        -0.1717
     12 C11         2.9579   -5.6547    0.8523 C.3       1 <0>         0.1430
     13 N2          3.8132   -5.9136   -0.3086 N.am      1 <0>        -0.6134
     14 C12         3.3541   -6.2089   -1.6710 C.3       1 <0>         0.2709
     15 H1          2.7676   -5.3755   -2.0578 H         1 <0>         0.0739
     16 C13         4.6008   -6.3976   -2.5034 C.2       1 <0>        -0.4981
     17 C14         5.6549   -6.2218   -1.6733 C.2       1 <0>         0.2664
     18 C15         5.1585   -5.9169   -0.3160 C.2       1 <0>         0.5183
     19 O1          5.8616   -5.7033    0.6518 O.2       1 <0>        -0.5277
     20 O2          6.9575   -6.3070   -2.0310 O.3       1 <0>        -0.6390
     21 C16         4.6576   -6.7113   -3.9353 C.2       1 <0>         0.5376
     22 O3          5.1160   -7.7766   -4.3077 O.2       1 <0>        -0.4396
     23 C17         4.1618   -5.7407   -4.9201 C.2       1 <0>        -0.0077
     24 C18         4.0707   -5.9609   -6.2602 C.2       1 <0>        -0.1505
     25 C19         3.5301   -4.7314   -6.8362 C.ar      1 <0>        -0.1378
     26 C20         3.2071   -4.3235   -8.1335 C.ar      1 <0>        -0.0623
     27 C21         2.7055   -3.0703   -8.3438 C.ar      1 <0>        -0.1423
     28 C22         2.5149   -2.2008   -7.2782 C.ar      1 <0>        -0.0921
     29 C23         2.8270   -2.5837   -5.9915 C.ar      1 <0>        -0.1114
     30 C24         3.3387   -3.8536   -5.7522 C.ar      1 <0>         0.0585
     31 O4          3.7222   -4.4980   -4.6327 O.3       1 <0>        -0.1684
     32 C25         2.5290   -7.4699   -1.6779 C.ar      1 <0>        -0.0405
     33 C26         2.8703   -8.5234   -0.8496 C.ar      1 <0>        -0.1321
     34 C27         2.1154   -9.6815   -0.8536 C.ar      1 <0>        -0.0790
     35 C28         1.0179   -9.7893   -1.6859 C.ar      1 <0>        -0.2131
     36 C29         0.6734   -8.7340   -2.5177 C.ar      1 <0>         0.1261
     37 C30         1.4292   -7.5704   -2.5074 C.ar      1 <0>        -0.1479
     38 O5         -0.4056   -8.8376   -3.3373 O.3       1 <0>        -0.3194
     39 C31        -1.1405  -10.0623   -3.2908 C.3       1 <0>         0.0283
     40 H2          0.6210    1.9327   -0.1052 H         1 <0>         0.0588
     41 H3         -0.8569    1.7742   -1.0844 H         1 <0>         0.0654
     42 H4         -0.9588    1.7421    0.6924 H         1 <0>         0.0569
     43 H5         -1.1600   -0.5418   -0.2521 H         1 <0>         0.0726
     44 H6          0.4198   -0.3512   -1.0496 H         1 <0>         0.0753
     45 H7          1.4976   -0.0347    1.1610 H         1 <0>         0.0850
     46 H8         -0.0822   -0.2253    1.9586 H         1 <0>         0.0845
     47 H9         -0.2843   -2.5105    1.1147 H         1 <0>         0.1295
     48 H10         1.2103   -2.3279    0.1655 H         1 <0>         0.1355
     49 H11         0.4300   -1.1238    3.4887 H         1 <0>         0.1297
     50 H12        -0.1590   -2.8034    3.5026 H         1 <0>         0.1285
     51 H13         1.8238   -3.5371    4.7296 H         1 <0>         0.0891
     52 H14         2.5398   -1.9118    4.6109 H         1 <0>         0.0860
     53 H15         0.6532   -0.9847    5.9260 H         1 <0>         0.0709
     54 H16        -0.0628   -2.6099    6.0447 H         1 <0>         0.0720
     55 H17         1.2234   -2.0525    8.0901 H         1 <0>         0.0644
     56 H18         1.9652   -3.4174    7.2212 H         1 <0>         0.0599
     57 H19         2.6811   -1.7921    7.1025 H         1 <0>         0.0592
     58 H20         2.2789   -4.2121    3.0633 H         1 <0>         0.1338
     59 H21         0.8338   -4.4348    2.0483 H         1 <0>         0.1311
     60 H22         2.1528   -3.8303    0.0375 H         1 <0>         0.0909
     61 H23         3.5980   -3.6075    1.0525 H         1 <0>         0.0924
     62 H24         3.4676   -5.9808    1.7590 H         1 <0>         0.0876
     63 H25         2.0224   -6.2035    0.7440 H         1 <0>         0.0862
     64 H26         4.3434   -6.8615   -6.7904 H         1 <0>         0.1650
     65 H27         3.3537   -4.9958   -8.9659 H         1 <0>         0.1283
     66 H28         2.4558   -2.7537   -9.3457 H         1 <0>         0.1286
     67 H29         2.1178   -1.2130   -7.4597 H         1 <0>         0.1328
     68 H30         2.6746   -1.8983   -5.1709 H         1 <0>         0.1287
     69 H31         3.7282   -8.4413   -0.1988 H         1 <0>         0.1192
     70 H32         2.3840  -10.5029   -0.2058 H         1 <0>         0.1224
     71 H33         0.4289  -10.6945   -1.6892 H         1 <0>         0.1243
     72 H34         1.1602   -6.7456   -3.1506 H         1 <0>         0.1254
     73 H35        -0.4853  -10.8897   -3.5632 H         1 <0>         0.0557
     74 H36        -1.5228  -10.2185   -2.2820 H         1 <0>         0.0529
     75 H37        -1.9739  -10.0128   -3.9916 H         1 <0>         0.0983
     76 H38         2.3539   -1.9338    2.2623 H         1 <0>         0.4231
@<TRIPOS>BOND
     1    1    2 1
     2    1   40 1
     3    1   41 1
     4    1   42 1
     5    2    3 1
     6    2   43 1
     7    2   44 1
     8    3    4 1
     9    3   45 1
    10    3   46 1
    11    4    5 1
    12    4   47 1
    13    4   48 1
    14    5    6 1
    15    5   10 1
    16    5   76 1
    17    6    7 1
    18    6   49 1
    19    6   50 1
    20    7    8 1
    21    7   51 1
    22    7   52 1
    23    8    9 1
    24    8   53 1
    25    8   54 1
    26    9   55 1
    27    9   56 1
    28    9   57 1
    29   10   11 1
    30   10   58 1
    31   10   59 1
    32   11   12 1
    33   11   60 1
    34   11   61 1
    35   12   13 1
    36   12   62 1
    37   12   63 1
    38   13   18 am
    39   13   14 1
    40   14   15 1
    41   14   16 1
    42   14   32 1
    43   16   17 2
    44   16   21 1
    45   17   18 1
    46   17   20 1
    47   18   19 2
    48   21   22 2
    49   21   23 1
    50   23   31 1
    51   23   24 2
    52   24   25 1
    53   24   64 1
    54   25   30 ar
    55   25   26 ar
    56   26   27 ar
    57   26   65 1
    58   27   28 ar
    59   27   66 1
    60   28   29 ar
    61   28   67 1
    62   29   30 ar
    63   29   68 1
    64   30   31 1
    65   32   37 ar
    66   32   33 ar
    67   33   34 ar
    68   33   69 1
    69   34   35 ar
    70   34   70 1
    71   35   36 ar
    72   35   71 1
    73   36   37 ar
    74   36   38 1
    75   37   72 1
    76   38   39 1
    77   39   73 1
    78   39   74 1
    79   39   75 1
@<TRIPOS>MOLECULE
ZINC36606803
   78    79     0     0     0
SMALL
USER_CHARGES

@<TRIPOS>ATOM
      1 C1         -0.7533   -4.5134   -3.7306 C.3       1 <0>        -0.1532
      2 C2         -0.2638   -3.6970   -2.5328 C.3       1 <0>        -0.1249
      3 C3          0.1451   -4.6442   -1.4029 C.3       1 <0>        -0.1210
      4 C4          0.6346   -3.8278   -0.2051 C.3       1 <0>        -0.1036
      5 C5          0.9403   -4.7682    0.9624 C.3       1 <0>        -0.1128
      6 H1          1.6433   -5.5349    0.6368 H         1 <0>         0.0939
      7 C6         -0.3547   -5.4315    1.4354 C.3       1 <0>        -0.1197
      8 C7         -1.3736   -4.3528    1.8084 C.3       1 <0>        -0.1509
      9 C8          1.5449   -3.9811    2.0964 C.2       1 <0>         0.5313
     10 O1          1.5637   -2.7692    2.0512 O.2       1 <0>        -0.5099
     11 N1          2.0647   -4.6239    3.1609 N.am      1 <0>        -0.5486
     12 C9          2.5571   -3.8929    4.2476 C.ar      1 <0>         0.1526
     13 C10         3.7531   -3.1965    4.1332 C.ar      1 <0>        -0.1130
     14 C11         4.2365   -2.4759    5.2077 C.ar      1 <0>        -0.1152
     15 C12         3.5309   -2.4474    6.3966 C.ar      1 <0>        -0.1176
     16 C13         2.3399   -3.1401    6.5139 C.ar      1 <0>        -0.1144
     17 C14         1.8480   -3.8576    5.4411 C.ar      1 <0>        -0.1289
     18 C15         2.1142   -6.0879    3.1801 C.3       1 <0>         0.1248
     19 H2          1.8475   -6.4734    2.1961 H         1 <0>         0.1300
     20 C16         3.5288   -6.5457    3.5410 C.3       1 <0>        -0.0935
     21 C17         4.5306   -5.9226    2.5668 C.3       1 <0>        -0.1268
     22 C18         4.3084   -6.5006    1.1677 C.3       1 <0>        -0.1599
     23 C19         3.8604   -6.1014    4.9671 C.3       1 <0>        -0.1642
     24 C20         2.9435   -6.8273    5.9536 C.3       1 <0>        -0.1768
     25 C21         1.1405   -6.6100    4.2050 C.2       1 <0>         0.5158
     26 O2          0.3057   -5.8698    4.6807 O.2       1 <0>        -0.4983
     27 N2          1.1972   -7.8995    4.5929 N.am      1 <0>        -0.7086
     28 C22         0.3246   -8.3804    5.6669 C.3       1 <0>        -0.3609
     29 S1         -1.1710   -9.1134    4.9482 S.o2      1 <0>         2.4697
     30 O3         -1.9992   -9.6416    5.9751 O.2       1 <0>        -0.9322
     31 O4         -1.7095   -8.2519    3.9547 O.2       1 <0>        -0.9151
     32 C23        -0.6017  -10.5242    4.0594 C.ar      1 <0>        -0.6662
     33 C24        -0.2326  -10.4027    2.7328 C.ar      1 <0>        -0.0182
     34 C25         0.2141  -11.5096    2.0355 C.ar      1 <0>        -0.1409
     35 C26         0.2920  -12.7379    2.6649 C.ar      1 <0>        -0.0267
     36 C27        -0.0763  -12.8592    3.9918 C.ar      1 <0>        -0.1399
     37 C28        -0.5189  -11.7515    4.6903 C.ar      1 <0>        -0.0198
     38 C29         0.7780  -13.9448    1.9045 C.3       1 <0>        -0.1276
     39 H3         -1.6115   -5.1160   -3.4333 H         1 <0>         0.0536
     40 H4         -1.0446   -3.8386   -4.5356 H         1 <0>         0.0534
     41 H5          0.0474   -5.1671   -4.0764 H         1 <0>         0.0526
     42 H6          0.5944   -3.0944   -2.8302 H         1 <0>         0.0610
     43 H7         -1.0645   -3.0433   -2.1871 H         1 <0>         0.0621
     44 H8         -0.7131   -5.2468   -1.1056 H         1 <0>         0.0670
     45 H9          0.9458   -5.2979   -1.7487 H         1 <0>         0.0607
     46 H10         1.5387   -3.2848   -0.4806 H         1 <0>         0.0678
     47 H11        -0.1385   -3.1191    0.0919 H         1 <0>         0.0784
     48 H12        -0.7587   -6.0517    0.6352 H         1 <0>         0.0787
     49 H13        -0.1476   -6.0525    2.3070 H         1 <0>         0.0698
     50 H14        -0.9322   -3.6724    2.5367 H         1 <0>         0.0546
     51 H15        -1.6561   -3.7955    0.9153 H         1 <0>         0.0581
     52 H16        -2.2583   -4.8219    2.2390 H         1 <0>         0.0604
     53 H17         4.3049   -3.2186    3.2050 H         1 <0>         0.1240
     54 H18         5.1668   -1.9344    5.1194 H         1 <0>         0.1255
     55 H19         3.9110   -1.8832    7.2354 H         1 <0>         0.1231
     56 H20         1.7913   -3.1162    7.4439 H         1 <0>         0.1238
     57 H21         0.9152   -4.3942    5.5317 H         1 <0>         0.1578
     58 H22         3.5867   -7.6322    3.4763 H         1 <0>         0.0880
     59 H23         4.3880   -4.8423    2.5405 H         1 <0>         0.0747
     60 H24         5.5452   -6.1472    2.8958 H         1 <0>         0.0724
     61 H25         5.0810   -6.1295    0.4944 H         1 <0>         0.0608
     62 H26         4.3571   -7.5886    1.2121 H         1 <0>         0.0584
     63 H27         3.3287   -6.1955    0.7999 H         1 <0>         0.0519
     64 H28         4.8993   -6.3437    5.1908 H         1 <0>         0.0683
     65 H29         3.7109   -5.0254    5.0564 H         1 <0>         0.1053
     66 H30         3.3571   -6.7491    6.9590 H         1 <0>         0.0526
     67 H31         1.9533   -6.3722    5.9317 H         1 <0>         0.0678
     68 H32         2.8668   -7.8778    5.6729 H         1 <0>         0.0639
     69 H33         1.8159   -8.5091    4.1610 H         1 <0>         0.4136
     70 H34         0.8517   -9.1324    6.2541 H         1 <0>         0.1474
     71 H35         0.0469   -7.5458    6.3106 H         1 <0>         0.1565
     72 H36        -0.2934   -9.4431    2.2411 H         1 <0>         0.1396
     73 H37         0.5018  -11.4148    0.9989 H         1 <0>         0.1337
     74 H38        -0.0157  -13.8189    4.4834 H         1 <0>         0.1338
     75 H39        -0.8031  -11.8455    5.7280 H         1 <0>         0.1416
     76 H40         1.8599  -14.0277    2.0076 H         1 <0>         0.0806
     77 H41         0.3050  -14.8414    2.3051 H         1 <0>         0.0739
     78 H42         0.5206  -13.8381    0.8507 H         1 <0>         0.0740
@<TRIPOS>BOND
     1    1    2 1
     2    1   39 1
     3    1   40 1
     4    1   41 1
     5    2    3 1
     6    2   42 1
     7    2   43 1
     8    3    4 1
     9    3   44 1
    10    3   45 1
    11    4    5 1
    12    4   46 1
    13    4   47 1
    14    5    6 1
    15    5    7 1
    16    5    9 1
    17    7    8 1
    18    7   48 1
    19    7   49 1
    20    8   50 1
    21    8   51 1
    22    8   52 1
    23    9   10 2
    24    9   11 am
    25   11   12 1
    26   11   18 1
    27   12   17 ar
    28   12   13 ar
    29   13   14 ar
    30   13   53 1
    31   14   15 ar
    32   14   54 1
    33   15   16 ar
    34   15   55 1
    35   16   17 ar
    36   16   56 1
    37   17   57 1
    38   18   19 1
    39   18   20 1
    40   18   25 1
    41   20   21 1
    42   20   23 1
    43   20   58 1
    44   21   22 1
    45   21   59 1
    46   21   60 1
    47   22   61 1
    48   22   62 1
    49   22   63 1
    50   23   24 1
    51   23   64 1
    52   23   65 1
    53   24   66 1
    54   24   67 1
    55   24   68 1
    56   25   26 2
    57   25   27 am
    58   27   28 1
    59   27   69 1
    60   28   29 1
    61   28   70 1
    62   28   71 1
    63   29   30 2
    64   29   31 2
    65   29   32 1
    66   32   37 ar
    67   32   33 ar
    68   33   34 ar
    69   33   72 1
    70   34   35 ar
    71   34   73 1
    72   35   36 ar
    73   35   38 1
    74   36   37 ar
    75   36   74 1
    76   37   75 1
    77   38   76 1
    78   38   77 1
    79   38   78 1
@<TRIPOS>MOLECULE
ZINC19314317
   70    72     0     0     0
SMALL
USER_CHARGES
2-[[5-(4-diethylaminophenyl)-4-methyl-1,2,4-triazol-3-yl]sulfanyl]-N-[(3,4-dimethoxyphenyl)methyl]-N-ethyl-acetamide
@<TRIPOS>ATOM
      1 C1          0.2514    2.1582  -14.0419 C.3       1 <0>        -0.1749
      2 C2         -1.1792    2.1134  -13.5012 C.3       1 <0>         0.1130
      3 N1         -1.3733    0.8798  -12.7352 N.pl3     1 <0>        -0.6213
      4 C3         -1.8501   -0.3319  -13.4064 C.3       1 <0>         0.1138
      5 C4         -3.3792   -0.3691  -13.3661 C.3       1 <0>        -0.1752
      6 C5         -1.1039    0.8590  -11.3660 C.ar      1 <0>         0.2377
      7 C6         -1.2886   -0.3127  -10.6403 C.ar      1 <0>        -0.1973
      8 C7         -1.0239   -0.3363   -9.2882 C.ar      1 <0>        -0.0596
      9 C8         -0.5698    0.8179   -8.6468 C.ar      1 <0>        -0.0869
     10 C9         -0.3903    1.9942   -9.3774 C.ar      1 <0>        -0.0205
     11 C10        -0.6517    2.0100  -10.7302 C.ar      1 <0>        -0.1977
     12 C11        -0.2854    0.7961   -7.1966 C.2       1 <0>         0.2464
     13 N2         -0.2278    1.8357   -6.3970 N.2       1 <0>        -0.2784
     14 N3          0.0349    1.4535   -5.1985 N.2       1 <0>        -0.2906
     15 C12         0.1707    0.1473   -5.1608 C.2       1 <0>         0.1370
     16 N4         -0.0319   -0.3176   -6.4296 N.pl3     1 <0>        -0.4622
     17 C13         0.0120   -1.7112   -6.8794 C.3       1 <0>         0.0642
     18 S1          0.5383   -0.8246   -3.7378 S.3       1 <0>         0.0755
     19 C14         0.6583    0.4798   -2.4887 C.3       1 <0>        -0.1470
     20 C15         0.9759   -0.1345   -1.1497 C.2       1 <0>         0.5383
     21 O1          1.1082   -1.3360   -1.0498 O.2       1 <0>        -0.5238
     22 N5          1.1131    0.6512   -0.0633 N.am      1 <0>        -0.5983
     23 C16         0.9534    2.1024   -0.1840 C.3       1 <0>         0.0963
     24 C17         2.3079    2.7401   -0.4998 C.3       1 <0>        -0.1748
     25 C18         1.4219    0.0540    1.2383 C.3       1 <0>         0.1580
     26 C19         0.1389   -0.2812    1.9543 C.ar      1 <0>        -0.1089
     27 C20        -0.4504    0.6519    2.7870 C.ar      1 <0>        -0.1021
     28 C21        -1.6303    0.3513    3.4416 C.ar      1 <0>        -0.1762
     29 C22        -2.2190   -0.8917    3.2726 C.ar      1 <0>         0.1044
     30 C23        -1.6229   -1.8329    2.4389 C.ar      1 <0>         0.0972
     31 C24        -0.4433   -1.5231    1.7813 C.ar      1 <0>        -0.1477
     32 O2         -2.1972   -3.0540    2.2695 O.3       1 <0>        -0.3068
     33 C25        -1.5298   -3.9696    1.3986 C.3       1 <0>         0.0229
     34 O3         -3.3771   -1.1909    3.9198 O.3       1 <0>        -0.3062
     35 C26        -3.9320   -0.1762    4.7592 C.3       1 <0>         0.0226
     36 H1          0.3971    3.0845  -14.6171 H         1 <0>         0.0667
     37 H2          0.4239    1.2900  -14.6950 H         1 <0>         0.0568
     38 H3          0.9617    2.1323  -13.2023 H         1 <0>         0.0601
     39 H4         -1.3517    2.9816  -12.8481 H         1 <0>         0.0791
     40 H5         -1.8895    2.1393  -14.3407 H         1 <0>         0.0765
     41 H6         -1.5108   -0.3291  -14.4528 H         1 <0>         0.0765
     42 H7         -1.4481   -1.2178  -12.8930 H         1 <0>         0.0776
     43 H8         -3.7372   -1.2789  -13.8701 H         1 <0>         0.0663
     44 H9         -3.7812    0.5168  -13.8795 H         1 <0>         0.0575
     45 H10        -3.7184   -0.3719  -12.3197 H         1 <0>         0.0597
     46 H11        -1.6395   -1.2052  -11.1369 H         1 <0>         0.1288
     47 H12        -1.1679   -1.2466   -8.7250 H         1 <0>         0.1255
     48 H13        -0.0431    2.8897   -8.8834 H         1 <0>         0.1342
     49 H14        -0.5089    2.9184  -11.2967 H         1 <0>         0.1305
     50 H15         0.2393   -2.3653   -6.0247 H         1 <0>         0.0987
     51 H16         0.7928   -1.8247   -7.6458 H         1 <0>         0.0944
     52 H17        -0.9631   -1.9899   -7.3053 H         1 <0>         0.0938
     53 H18         1.4568    1.1828   -2.7683 H         1 <0>         0.1288
     54 H19        -0.2991    1.0180   -2.4274 H         1 <0>         0.1278
     55 H20         0.2445    2.3271   -0.9945 H         1 <0>         0.0848
     56 H21         0.5686    2.5090    0.7629 H         1 <0>         0.0865
     57 H22         2.1879    3.8298   -0.5904 H         1 <0>         0.0736
     58 H23         2.6927    2.3336   -1.4467 H         1 <0>         0.0591
     59 H24         3.0168    2.5154    0.3107 H         1 <0>         0.0620
     60 H25         2.0098   -0.8639    1.0904 H         1 <0>         0.0962
     61 H26         2.0023    0.7681    1.8409 H         1 <0>         0.0924
     62 H27         0.0098    1.6194    2.9230 H         1 <0>         0.1260
     63 H28        -2.0909    1.0836    4.0881 H         1 <0>         0.1358
     64 H29         0.0216   -2.2520    1.1340 H         1 <0>         0.1427
     65 H30        -2.0968   -4.9110    1.3522 H         1 <0>         0.1022
     66 H31        -0.5183   -4.1693    1.7820 H         1 <0>         0.0560
     67 H32        -1.4605   -3.5332    0.3912 H         1 <0>         0.0581
     68 H33        -4.8603   -0.5471    5.2181 H         1 <0>         0.1027
     69 H34        -4.1523    0.7177    4.1572 H         1 <0>         0.0557
     70 H35        -3.2105    0.0818    5.5484 H         1 <0>         0.0561
@<TRIPOS>BOND
     1    1    2 1
     2    1   36 1
     3    1   37 1
     4    1   38 1
     5    2    3 1
     6    2   39 1
     7    2   40 1
     8    3    4 1
     9    3    6 1
    10    4    5 1
    11    4   41 1
    12    4   42 1
    13    5   43 1
    14    5   44 1
    15    5   45 1
    16    6   11 ar
    17    6    7 ar
    18    7    8 ar
    19    7   46 1
    20    8    9 ar
    21    8   47 1
    22    9   10 ar
    23    9   12 1
    24   10   11 ar
    25   10   48 1
    26   11   49 1
    27   12   16 1
    28   12   13 2
    29   13   14 1
    30   14   15 2
    31   15   16 1
    32   15   18 1
    33   16   17 1
    34   17   50 1
    35   17   51 1
    36   17   52 1
    37   18   19 1
    38   19   20 1
    39   19   53 1
    40   19   54 1
    41   20   21 2
    42   20   22 am
    43   22   23 1
    44   22   25 1
    45   23   24 1
    46   23   55 1
    47   23   56 1
    48   24   57 1
    49   24   58 1
    50   24   59 1
    51   25   26 1
    52   25   60 1
    53   25   61 1
    54   26   31 ar
    55   26   27 ar
    56   27   28 ar
    57   27   62 1
    58   28   29 ar
    59   28   63 1
    60   29   30 ar
    61   29   34 1
    62   30   31 ar
    63   30   32 1
    64   31   64 1
    65   32   33 1
    66   33   65 1
    67   33   66 1
    68   33   67 1
    69   34   35 1
    70   35   68 1
    71   35   69 1
    72   35   70 1
@<TRIPOS>MOLECULE
ZINC24829473
   69    72     0     0     0
SMALL
USER_CHARGES
N-(1-cyclohexenyl)-N-(2-furylmethyl)-2-[[4-isopentyl-5-(phenoxymethyl)-1,2,4-triazol-3-yl]sulfanyl]acetamide
@<TRIPOS>ATOM
      1 C1          1.1584    4.5571    0.2065 C.3       1 <0>        -0.1490
      2 C2         -0.1279    3.7348    0.1060 C.3       1 <0>        -0.0913
      3 C3         -0.8779    4.1151   -1.1722 C.3       1 <0>        -0.1544
      4 C4          0.2204    2.2454    0.0689 C.3       1 <0>        -0.1334
      5 C5         -1.0673    1.4197    0.0943 C.3       1 <0>         0.0966
      6 N1         -0.7337   -0.0064    0.0587 N.pl3     1 <0>        -0.4461
      7 C6         -0.5849   -0.7922   -1.0506 C.2       1 <0>         0.1768
      8 N2         -0.2864   -1.9919   -0.6389 N.2       1 <0>        -0.2526
      9 N3         -0.2458   -2.0203    0.6454 N.2       1 <0>        -0.2889
     10 C7         -0.5127   -0.8282    1.1264 C.2       1 <0>         0.1498
     11 S1         -0.5747   -0.3749    2.8280 S.3       1 <0>         0.0870
     12 C8         -0.1805   -1.9676    3.5922 C.3       1 <0>        -0.1526
     13 C9         -0.1764   -1.8179    5.0917 C.2       1 <0>         0.5382
     14 O1         -0.4163   -0.7405    5.5943 O.2       1 <0>        -0.5049
     15 N4          0.0939   -2.8814    5.8743 N.am      1 <0>        -0.5599
     16 C10         0.2777   -4.2049    5.2738 C.3       1 <0>         0.1833
     17 C11         1.7456   -4.4486    5.0347 C.2       1 <0>        -0.0478
     18 C12         2.6010   -5.0148    5.9048 C.2       1 <0>        -0.1781
     19 C13         3.8659   -5.0462    5.2739 C.2       1 <0>        -0.2172
     20 C14         3.7078   -4.4973    4.0561 C.2       1 <0>        -0.0268
     21 O2          2.4202   -4.1425    3.9145 O.3       1 <0>        -0.1714
     22 C15         0.1984   -2.7221    7.2535 C.2       1 <0>         0.0886
     23 C16         1.1477   -1.9542    7.7115 C.2       1 <0>        -0.1295
     24 C17         1.3868   -1.6969    9.1706 C.3       1 <0>        -0.0860
     25 C18         0.1519   -2.0897    9.9842 C.3       1 <0>        -0.1257
     26 C19        -0.2776   -3.5012    9.5647 C.3       1 <0>        -0.1156
     27 C20        -0.7921   -3.4397    8.1233 C.3       1 <0>        -0.0831
     28 C21        -0.7350   -0.3515   -2.4838 C.3       1 <0>         0.1514
     29 O3          0.5284    0.0961   -2.9794 O.3       1 <0>        -0.3077
     30 C22         0.5674    0.5309   -4.2664 C.ar      1 <0>         0.1293
     31 C23        -0.5854    0.5215   -5.0382 C.ar      1 <0>        -0.2091
     32 C24        -0.5444    0.9697   -6.3443 C.ar      1 <0>        -0.0785
     33 C25         0.6468    1.4160   -6.8862 C.ar      1 <0>        -0.1552
     34 C26         1.7983    1.4210   -6.1208 C.ar      1 <0>        -0.0789
     35 C27         1.7613    0.9796   -4.8123 C.ar      1 <0>        -0.1480
     36 H1          1.6975    4.2836    1.1255 H         1 <0>         0.0574
     37 H2          0.9079    5.6279    0.2332 H         1 <0>         0.0598
     38 H3          1.7945    4.3510   -0.6669 H         1 <0>         0.0565
     39 H4         -0.7639    3.9410    0.9795 H         1 <0>         0.0761
     40 H5         -1.8027    3.5238   -1.2444 H         1 <0>         0.0529
     41 H6         -0.2418    3.9090   -2.0456 H         1 <0>         0.0583
     42 H7         -1.1284    5.1859   -1.1455 H         1 <0>         0.0608
     43 H8          0.7807    2.0227   -0.8511 H         1 <0>         0.0791
     44 H9          0.8364    1.9910    0.9440 H         1 <0>         0.0765
     45 H10        -1.6275    1.6424    1.0144 H         1 <0>         0.1035
     46 H11        -1.6834    1.6741   -0.7808 H         1 <0>         0.1033
     47 H12        -0.9363   -2.7115    3.3000 H         1 <0>         0.1304
     48 H13         0.8118   -2.3009    3.2542 H         1 <0>         0.1347
     49 H14        -0.1156   -4.9742    5.9546 H         1 <0>         0.1202
     50 H15        -0.2624   -4.2515    4.3167 H         1 <0>         0.1052
     51 H16         2.3667   -5.3755    6.8954 H         1 <0>         0.1477
     52 H17         4.7832   -5.4358    5.6902 H         1 <0>         0.1494
     53 H18         4.4835   -4.3686    3.3158 H         1 <0>         0.2032
     54 H19         1.8319   -1.4496    7.0134 H         1 <0>         0.1056
     55 H20         2.2473   -2.2913    9.5115 H         1 <0>         0.0788
     56 H21         1.5953   -0.6280    9.3251 H         1 <0>         0.0757
     57 H22         0.3991   -2.0752   11.0560 H         1 <0>         0.0686
     58 H23        -0.6605   -1.3752    9.7856 H         1 <0>         0.0669
     59 H24         0.5848   -4.1810    9.6284 H         1 <0>         0.0676
     60 H25        -1.0746   -3.8563   10.2346 H         1 <0>         0.0715
     61 H26        -1.7523   -2.9034    8.1049 H         1 <0>         0.0795
     62 H27        -0.9365   -4.4632    7.7471 H         1 <0>         0.0736
     63 H28        -1.0889   -1.1969   -3.0922 H         1 <0>         0.1043
     64 H29        -1.4632    0.4710   -2.5402 H         1 <0>         0.0838
     65 H30        -1.5150    0.1684   -4.6169 H         1 <0>         0.1274
     66 H31        -1.4424    0.9668   -6.9442 H         1 <0>         0.1265
     67 H32         0.6778    1.7616   -7.9089 H         1 <0>         0.1252
     68 H33         2.7274    1.7708   -6.5461 H         1 <0>         0.1306
     69 H34         2.6610    0.9834   -4.2149 H         1 <0>         0.1302
@<TRIPOS>BOND
     1    1    2 1
     2    1   36 1
     3    1   37 1
     4    1   38 1
     5    2    3 1
     6    2    4 1
     7    2   39 1
     8    3   40 1
     9    3   41 1
    10    3   42 1
    11    4    5 1
    12    4   43 1
    13    4   44 1
    14    5    6 1
    15    5   45 1
    16    5   46 1
    17    6   10 1
    18    6    7 1
    19    7    8 2
    20    7   28 1
    21    8    9 1
    22    9   10 2
    23   10   11 1
    24   11   12 1
    25   12   13 1
    26   12   47 1
    27   12   48 1
    28   13   14 2
    29   13   15 am
    30   15   16 1
    31   15   22 1
    32   16   17 1
    33   16   49 1
    34   16   50 1
    35   17   21 1
    36   17   18 2
    37   18   19 1
    38   18   51 1
    39   19   20 2
    40   19   52 1
    41   20   21 1
    42   20   53 1
    43   22   27 1
    44   22   23 2
    45   23   24 1
    46   23   54 1
    47   24   25 1
    48   24   55 1
    49   24   56 1
    50   25   26 1
    51   25   57 1
    52   25   58 1
    53   26   27 1
    54   26   59 1
    55   26   60 1
    56   27   61 1
    57   27   62 1
    58   28   29 1
    59   28   63 1
    60   28   64 1
    61   29   30 1
    62   30   35 ar
    63   30   31 ar
    64   31   32 ar
    65   31   65 1
    66   32   33 ar
    67   32   66 1
    68   33   34 ar
    69   33   67 1
    70   34   35 ar
    71   34   68 1
    72   35   69 1
@<TRIPOS>MOLECULE
ZINC35351000
   71    73     0     0     0
SMALL
USER_CHARGES

@<TRIPOS>ATOM
      1 C1         -1.0115  -10.7849   -0.0021 C.3       1 <0>        -0.1194
      2 C2         -0.3075   -9.4565    0.1020 C.ar      1 <0>        -0.0760
      3 C3          0.2763   -9.0753    1.2956 C.ar      1 <0>        -0.1174
      4 C4          0.9221   -7.8568    1.3911 C.ar      1 <0>        -0.0935
      5 C5          0.9846   -7.0197    0.2927 C.ar      1 <0>        -0.1163
      6 C6          0.4016   -7.4014   -0.9012 C.ar      1 <0>        -0.1061
      7 C7         -0.2405   -8.6218   -0.9978 C.ar      1 <0>        -0.1189
      8 C8          1.6877   -5.6910    0.3971 C.3       1 <0>         0.1421
      9 N1          3.1108   -5.8666    0.0966 N.am      1 <0>        -0.6059
     10 C9          4.0375   -6.2773    1.1542 C.3       1 <0>         0.1230
     11 C10         4.1202   -7.8046    1.1951 C.3       1 <0>        -0.0609
     12 C11         5.0735   -8.2271    2.2831 C.2       1 <0>        -0.1700
     13 C12         6.3774   -8.5104    2.1365 C.2       1 <0>         0.0601
     14 N2          6.9184   -8.8566    3.3448 N.pl3     1 <0>        -0.5953
     15 H1          7.8452   -9.1030    3.4903 H         1 <0>         0.4163
     16 C13         5.9511   -8.8032    4.3233 C.ar      1 <0>         0.0948
     17 C14         4.7545   -8.4004    3.7023 C.ar      1 <0>        -0.0993
     18 C15         3.5916   -8.2533    4.4604 C.ar      1 <0>        -0.0723
     19 C16         3.6225   -8.4983    5.8045 C.ar      1 <0>        -0.1451
     20 C17         4.8012   -8.8919    6.4225 C.ar      1 <0>        -0.0994
     21 C18         5.9584   -9.0522    5.6916 C.ar      1 <0>        -0.1294
     22 C19         3.5674   -5.6503   -1.1529 C.2       1 <0>         0.4922
     23 O1          4.7258   -5.8855   -1.4245 O.2       1 <0>        -0.5151
     24 C20         2.6385   -5.1163   -2.2127 C.3       1 <0>         0.0581
     25 N3          3.3947   -4.8608   -3.4411 N.am      1 <0>        -0.5911
     26 C21         3.6954   -5.9626   -4.3587 C.3       1 <0>         0.1227
     27 C22         2.5678   -6.0944   -5.3843 C.3       1 <0>         0.0424
     28 O2          2.5274   -4.9225   -6.2011 O.3       1 <0>        -0.3700
     29 C23         1.5035   -4.9437   -7.1977 C.3       1 <0>         0.0305
     30 C24         3.8136   -3.6121   -3.7272 C.2       1 <0>         0.5343
     31 O3          4.3845   -3.3889   -4.7737 O.2       1 <0>        -0.4955
     32 C25         3.5728   -2.4934   -2.7467 C.3       1 <0>        -0.0926
     33 C26         4.3789   -1.2633   -3.1684 C.3       1 <0>        -0.1316
     34 C27         2.0832   -2.1447   -2.7266 C.3       1 <0>        -0.1492
     35 C28         4.0117   -2.9364   -1.3496 C.3       1 <0>        -0.0439
     36 Cl1         3.9276   -1.5335   -0.2201 Cl        1 <0>        -0.1659
     37 H2         -0.2996  -11.5502   -0.3112 H         1 <0>         0.0720
     38 H3         -1.4318  -11.0503    0.9680 H         1 <0>         0.0680
     39 H4         -1.8123  -10.7150   -0.7382 H         1 <0>         0.0673
     40 H5          0.2274   -9.7292    2.1538 H         1 <0>         0.1235
     41 H6          1.3775   -7.5586    2.3239 H         1 <0>         0.1234
     42 H7          0.4502   -6.7473   -1.7592 H         1 <0>         0.1174
     43 H8         -0.6927   -8.9216   -1.9316 H         1 <0>         0.1223
     44 H9          1.2498   -4.9912   -0.3147 H         1 <0>         0.0869
     45 H10         1.5756   -5.2989    1.4079 H         1 <0>         0.0966
     46 H11         5.0261   -5.8653    0.9513 H         1 <0>         0.0842
     47 H12         3.6797   -5.9070    2.1149 H         1 <0>         0.0803
     48 H13         3.1317   -8.2166    1.3980 H         1 <0>         0.0802
     49 H14         4.4781   -8.1749    0.2345 H         1 <0>         0.0704
     50 H15         6.9192   -8.4712    1.2031 H         1 <0>         0.1688
     51 H16         2.6709   -7.9466    3.9864 H         1 <0>         0.1172
     52 H17         2.7225   -8.3844    6.3906 H         1 <0>         0.1216
     53 H18         4.8100   -9.0812    7.4857 H         1 <0>         0.1245
     54 H19         6.8709   -9.3577    6.1819 H         1 <0>         0.1189
     55 H20         1.8565   -5.8487   -2.4131 H         1 <0>         0.1079
     56 H21         2.1860   -4.1877   -1.8648 H         1 <0>         0.1270
     57 H22         4.6340   -5.7598   -4.8746 H         1 <0>         0.0964
     58 H23         3.7841   -6.8911   -3.7947 H         1 <0>         0.0932
     59 H24         2.7469   -6.9681   -6.0110 H         1 <0>         0.0595
     60 H25         1.6161   -6.2085   -4.8653 H         1 <0>         0.0469
     61 H26         1.6606   -5.7935   -7.8620 H         1 <0>         0.0395
     62 H27         0.5297   -5.0340   -6.7163 H         1 <0>         0.0371
     63 H28         1.5392   -4.0198   -7.7750 H         1 <0>         0.0852
     64 H29         4.0662   -0.9476   -4.1637 H         1 <0>         0.0717
     65 H30         4.2047   -0.4541   -2.4592 H         1 <0>         0.0739
     66 H31         5.4401   -1.5117   -3.1827 H         1 <0>         0.0626
     67 H32         1.5208   -2.9771   -2.3036 H         1 <0>         0.0616
     68 H33         1.9267   -1.2540   -2.1181 H         1 <0>         0.0810
     69 H34         1.7408   -1.9545   -3.7438 H         1 <0>         0.0739
     70 H35         3.3516   -3.7281   -0.9953 H         1 <0>         0.1012
     71 H36         5.0354   -3.3084   -1.3912 H         1 <0>         0.1017
@<TRIPOS>BOND
     1    1    2 1
     2    1   37 1
     3    1   38 1
     4    1   39 1
     5    2    7 ar
     6    2    3 ar
     7    3    4 ar
     8    3   40 1
     9    4    5 ar
    10    4   41 1
    11    5    6 ar
    12    5    8 1
    13    6    7 ar
    14    6   42 1
    15    7   43 1
    16    8    9 1
    17    8   44 1
    18    8   45 1
    19    9   10 1
    20    9   22 am
    21   10   11 1
    22   10   46 1
    23   10   47 1
    24   11   12 1
    25   11   48 1
    26   11   49 1
    27   12   17 1
    28   12   13 2
    29   13   14 1
    30   13   50 1
    31   14   15 1
    32   14   16 1
    33   16   21 ar
    34   16   17 ar
    35   17   18 ar
    36   18   19 ar
    37   18   51 1
    38   19   20 ar
    39   19   52 1
    40   20   21 ar
    41   20   53 1
    42   21   54 1
    43   22   23 2
    44   22   24 1
    45   24   25 1
    46   24   55 1
    47   24   56 1
    48   25   26 1
    49   25   30 am
    50   26   27 1
    51   26   57 1
    52   26   58 1
    53   27   28 1
    54   27   59 1
    55   27   60 1
    56   28   29 1
    57   29   61 1
    58   29   62 1
    59   29   63 1
    60   30   31 2
    61   30   32 1
    62   32   33 1
    63   32   34 1
    64   32   35 1
    65   33   64 1
    66   33   65 1
    67   33   66 1
    68   34   67 1
    69   34   68 1
    70   34   69 1
    71   35   36 1
    72   35   70 1
    73   35   71 1
@<TRIPOS>MOLECULE
ZINC36582108
   73    74     0     0     0
SMALL
USER_CHARGES

@<TRIPOS>ATOM
      1 C1          9.7797  -11.6639    6.7781 C.3       1 <0>        -0.1544
      2 C2          8.3104  -11.2975    6.5597 C.3       1 <0>        -0.1242
      3 C3          8.1917  -10.3617    5.3551 C.3       1 <0>        -0.1198
      4 C4          6.7224   -9.9953    5.1367 C.3       1 <0>        -0.1127
      5 C5          6.6037   -9.0595    3.9322 C.3       1 <0>        -0.1259
      6 C6          5.1564   -8.6986    3.7171 C.2       1 <0>        -0.0501
      7 C7          4.8059   -7.4265    3.5508 C.2       1 <0>        -0.2488
      8 C8          5.8273   -6.4183    3.2280 C.2       1 <0>         0.5539
      9 O1          6.9674   -6.7642    2.9840 O.2       1 <0>        -0.4918
     10 N1          5.4997   -5.1112    3.2028 N.am      1 <0>        -0.5934
     11 C9          6.5367   -4.1003    2.9821 C.3       1 <0>         0.1719
     12 H1          6.1050   -3.1060    3.0966 H         1 <0>         0.1320
     13 C10         7.0945   -4.2484    1.5900 C.ar      1 <0>        -0.0990
     14 C11         6.8396   -5.3953    0.8617 C.ar      1 <0>        -0.0745
     15 C12         7.3512   -5.5312   -0.4153 C.ar      1 <0>        -0.1180
     16 C13         8.1174   -4.5199   -0.9641 C.ar      1 <0>        -0.1123
     17 C14         8.3716   -3.3726   -0.2361 C.ar      1 <0>        -0.1203
     18 C15         7.8564   -3.2349    1.0392 C.ar      1 <0>        -0.1215
     19 C16         7.6425   -4.2868    3.9888 C.2       1 <0>         0.5174
     20 O2          7.5798   -5.1877    4.7984 O.2       1 <0>        -0.4894
     21 N2          8.7011   -3.4526    3.9894 N.am      1 <0>        -0.7079
     22 C17         9.7760   -3.6340    4.9681 C.3       1 <0>        -0.3585
     23 S1         11.1053   -4.6233    4.2298 S.o2      1 <0>         2.4641
     24 O3         12.1839   -4.7549    5.1456 O.2       1 <0>        -0.9361
     25 O4         10.5629   -5.7649    3.5804 O.2       1 <0>        -0.9044
     26 C18        11.7423   -3.6243    2.9256 C.ar      1 <0>        -0.6664
     27 C19        11.2025   -3.7180    1.6564 C.ar      1 <0>        -0.0107
     28 C20        11.7022   -2.9343    0.6332 C.ar      1 <0>        -0.1398
     29 C21        12.7414   -2.0566    0.8792 C.ar      1 <0>        -0.0284
     30 C22        13.2806   -1.9622    2.1486 C.ar      1 <0>        -0.1422
     31 C23        12.7780   -2.7428    3.1728 C.ar      1 <0>        -0.0209
     32 C24        13.2869   -1.2029   -0.2365 C.3       1 <0>        -0.1262
     33 C25         4.1065   -4.7014    3.3960 C.3       1 <0>         0.1659
     34 C26         3.6199   -5.1784    4.7659 C.3       1 <0>        -0.1794
     35 C27         4.0086   -3.1763    3.3226 C.3       1 <0>        -0.1611
     36 C28         3.2359   -5.3217    2.3013 C.3       1 <0>        -0.1750
     37 H2         10.3564  -10.7578    6.9638 H         1 <0>         0.0542
     38 H3          9.8643  -12.3306    7.6363 H         1 <0>         0.0523
     39 H4         10.1653  -12.1643    5.8898 H         1 <0>         0.0534
     40 H5          7.7337  -12.2037    6.3740 H         1 <0>         0.0589
     41 H6          7.9248  -10.7971    7.4480 H         1 <0>         0.0591
     42 H7          8.7684   -9.4556    5.5408 H         1 <0>         0.0644
     43 H8          8.5773  -10.8621    4.4669 H         1 <0>         0.0611
     44 H9          6.1457  -10.9015    4.9511 H         1 <0>         0.0565
     45 H10         6.3368   -9.4949    6.0250 H         1 <0>         0.0584
     46 H11         7.1804   -8.1534    4.1178 H         1 <0>         0.1185
     47 H12         6.9893   -9.5599    3.0439 H         1 <0>         0.0761
     48 H13         4.4039   -9.4730    3.6980 H         1 <0>         0.1220
     49 H14         3.7714   -7.1337    3.6526 H         1 <0>         0.1456
     50 H15         6.2410   -6.1854    1.2904 H         1 <0>         0.1341
     51 H16         7.1526   -6.4276   -0.9840 H         1 <0>         0.1212
     52 H17         8.5178   -4.6264   -1.9615 H         1 <0>         0.1215
     53 H18         8.9705   -2.5827   -0.6648 H         1 <0>         0.1231
     54 H19         8.0518   -2.3370    1.6065 H         1 <0>         0.1160
     55 H20         8.7512   -2.7322    3.3419 H         1 <0>         0.4084
     56 H21        10.1680   -2.6603    5.2619 H         1 <0>         0.1431
     57 H22         9.3851   -4.1483    5.8460 H         1 <0>         0.1542
     58 H23        10.3906   -4.4038    1.4642 H         1 <0>         0.1411
     59 H24        11.2810   -3.0081   -0.3585 H         1 <0>         0.1318
     60 H25        14.0927   -1.2767    2.3408 H         1 <0>         0.1327
     61 H26        13.1967   -2.6664    4.1654 H         1 <0>         0.1404
     62 H27        12.7409   -0.2602   -0.2729 H         1 <0>         0.0796
     63 H28        14.3437   -1.0041   -0.0584 H         1 <0>         0.0730
     64 H29        13.1705   -1.7270   -1.1851 H         1 <0>         0.0730
     65 H30         4.1280   -4.6147    5.5484 H         1 <0>         0.0616
     66 H31         2.5443   -5.0206    4.8446 H         1 <0>         0.0703
     67 H32         3.8409   -6.2396    4.8808 H         1 <0>         0.0814
     68 H33         4.3165   -2.8397    2.3327 H         1 <0>         0.0680
     69 H34         2.9792   -2.8690    3.5070 H         1 <0>         0.0787
     70 H35         4.6604   -2.7338    4.0759 H         1 <0>         0.0631
     71 H36         3.2601   -6.4078    2.3896 H         1 <0>         0.0749
     72 H37         2.2097   -4.9710    2.4109 H         1 <0>         0.0720
     73 H38         3.6178   -5.0280    1.3235 H         1 <0>         0.0642
@<TRIPOS>BOND
     1    1    2 1
     2    1   37 1
     3    1   38 1
     4    1   39 1
     5    2    3 1
     6    2   40 1
     7    2   41 1
     8    3    4 1
     9    3   42 1
    10    3   43 1
    11    4    5 1
    12    4   44 1
    13    4   45 1
    14    5    6 1
    15    5   46 1
    16    5   47 1
    17    6    7 2
    18    6   48 1
    19    7    8 1
    20    7   49 1
    21    8    9 2
    22    8   10 am
    23   10   11 1
    24   10   33 1
    25   11   12 1
    26   11   13 1
    27   11   19 1
    28   13   18 ar
    29   13   14 ar
    30   14   15 ar
    31   14   50 1
    32   15   16 ar
    33   15   51 1
    34   16   17 ar
    35   16   52 1
    36   17   18 ar
    37   17   53 1
    38   18   54 1
    39   19   20 2
    40   19   21 am
    41   21   22 1
    42   21   55 1
    43   22   23 1
    44   22   56 1
    45   22   57 1
    46   23   24 2
    47   23   25 2
    48   23   26 1
    49   26   31 ar
    50   26   27 ar
    51   27   28 ar
    52   27   58 1
    53   28   29 ar
    54   28   59 1
    55   29   30 ar
    56   29   32 1
    57   30   31 ar
    58   30   60 1
    59   31   61 1
    60   32   62 1
    61   32   63 1
    62   32   64 1
    63   33   34 1
    64   33   35 1
    65   33   36 1
    66   34   65 1
    67   34   66 1
    68   34   67 1
    69   35   68 1
    70   35   69 1
    71   35   70 1
    72   36   71 1
    73   36   72 1
    74   36   73 1
@<TRIPOS>MOLECULE
ZINC44947623
   70    72     0     0     0
SMALL
USER_CHARGES

@<TRIPOS>ATOM
      1 C1          0.7254    1.4200   -1.1631 C.3       1 <0>        -0.1538
      2 C2          0.5105   -0.0851   -1.3343 C.3       1 <0>         0.0536
      3 O1         -0.6357   -0.4911   -0.5836 O.3       1 <0>        -0.3137
      4 C3         -0.9678   -1.8091   -0.6282 C.ar      1 <0>         0.1387
      5 C4         -0.2018   -2.6921   -1.3748 C.ar      1 <0>        -0.2038
      6 C5         -0.5384   -4.0307   -1.4206 C.ar      1 <0>        -0.0761
      7 C6         -1.6441   -4.4927   -0.7190 C.ar      1 <0>         0.0923
      8 C7         -2.4104   -3.6080    0.0282 C.ar      1 <0>        -0.0441
      9 C8         -2.0691   -2.2707    0.0775 C.ar      1 <0>        -0.1409
     10 N1         -1.9861   -5.8488   -0.7652 N.pl3     1 <0>        -0.9232
     11 C9         -1.0358   -6.8603   -0.2961 C.3       1 <0>         0.1022
     12 C10        -1.1731   -7.0251    1.1955 C.2       1 <0>         0.5006
     13 O2         -1.9848   -6.3628    1.8066 O.2       1 <0>        -0.5136
     14 N2         -0.3938   -7.9084    1.8505 N.am      1 <0>        -0.7265
     15 C11        -0.6045   -8.1522    3.2796 C.3       1 <0>         0.1853
     16 H1         -0.8561   -7.2145    3.7750 H         1 <0>         0.1007
     17 C12        -1.7501   -9.1495    3.4634 C.3       1 <0>        -0.1217
     18 C13        -2.0521   -9.3102    4.9547 C.3       1 <0>        -0.0942
     19 C14        -2.5946   -7.9919    5.5101 C.3       1 <0>        -0.1503
     20 C15        -3.0951  -10.4128    5.1479 C.3       1 <0>        -0.1468
     21 C16         0.6552   -8.7173    3.8838 C.ar      1 <0>        -0.0876
     22 C17         1.4027   -9.6445    3.1821 C.ar      1 <0>        -0.1168
     23 C18         2.5582  -10.1628    3.7364 C.ar      1 <0>        -0.1151
     24 C19         2.9664   -9.7535    4.9921 C.ar      1 <0>        -0.1187
     25 C20         2.2193   -8.8256    5.6934 C.ar      1 <0>        -0.1145
     26 C21         1.0661   -8.3041    5.1374 C.ar      1 <0>        -0.1057
     27 S1         -3.4650   -6.3103   -1.3502 S.o2      1 <0>         2.6858
     28 O3         -3.8110   -7.5127   -0.6765 O.2       1 <0>        -0.9423
     29 O4         -4.2920   -5.1551   -1.3202 O.2       1 <0>        -0.9364
     30 C22        -3.2463   -6.7291   -3.0476 C.ar      1 <0>        -0.6878
     31 C23        -3.3865   -5.7573   -4.0216 C.ar      1 <0>         0.0067
     32 C24        -3.2163   -6.0819   -5.3528 C.ar      1 <0>        -0.1212
     33 C25        -2.9032   -7.3870   -5.7135 C.ar      1 <0>        -0.0299
     34 C26        -2.7625   -8.3608   -4.7321 C.ar      1 <0>        -0.1573
     35 C27        -2.9291   -8.0277   -3.4024 C.ar      1 <0>        -0.0004
     36 S2         -2.6855   -7.8061   -7.4110 S.3       1 <0>        -0.0938
     37 C28        -2.2989   -9.5781   -7.3795 C.3       1 <0>        -0.1508
     38 H2          1.5996    1.7297   -1.7357 H         1 <0>         0.0790
     39 H3         -0.1530    1.9557   -1.5229 H         1 <0>         0.0674
     40 H4          0.8827    1.6469   -0.1086 H         1 <0>         0.0670
     41 H5          0.3532   -0.3120   -2.3888 H         1 <0>         0.0631
     42 H6          1.3889   -0.6208   -0.9745 H         1 <0>         0.0625
     43 H7          0.6579   -2.3326   -1.9207 H         1 <0>         0.1325
     44 H8          0.0580   -4.7180   -2.0023 H         1 <0>         0.1295
     45 H9         -3.2706   -3.9664    0.5742 H         1 <0>         0.1394
     46 H10        -2.6622   -1.5833    0.6624 H         1 <0>         0.1380
     47 H11        -1.2447   -7.8107   -0.7874 H         1 <0>         0.1134
     48 H12        -0.0205   -6.5434   -0.5348 H         1 <0>         0.1158
     49 H13         0.3065   -8.3827    1.3756 H         1 <0>         0.3992
     50 H14        -2.6385   -8.7810    2.9505 H         1 <0>         0.0763
     51 H15        -1.4628  -10.1141    3.0449 H         1 <0>         0.0658
     52 H16        -1.1376   -9.5784    5.4837 H         1 <0>         0.0730
     53 H17        -3.5456   -7.7596    5.0308 H         1 <0>         0.0574
     54 H18        -2.7431   -8.0846    6.5860 H         1 <0>         0.0538
     55 H19        -1.8817   -7.1922    5.3093 H         1 <0>         0.0550
     56 H20        -2.7086  -11.3520    4.7522 H         1 <0>         0.0528
     57 H21        -3.3102  -10.5272    6.2103 H         1 <0>         0.0551
     58 H22        -4.0096  -10.1446    4.6189 H         1 <0>         0.0554
     59 H23         1.0839   -9.9642    2.2011 H         1 <0>         0.1198
     60 H24         3.1419  -10.8877    3.1884 H         1 <0>         0.1232
     61 H25         3.8687  -10.1590    5.4254 H         1 <0>         0.1226
     62 H26         2.5380   -8.5062    6.6746 H         1 <0>         0.1242
     63 H27         0.4844   -7.5764    5.6837 H         1 <0>         0.1239
     64 H28        -3.6299   -4.7433   -3.7406 H         1 <0>         0.1467
     65 H29        -3.3267   -5.3226   -6.1129 H         1 <0>         0.1404
     66 H30        -2.5192   -9.3761   -5.0087 H         1 <0>         0.1348
     67 H31        -2.8160   -8.7831   -2.6389 H         1 <0>         0.1426
     68 H32        -2.1453   -9.9347   -8.3980 H         1 <0>         0.1151
     69 H33        -1.3926   -9.7419   -6.7966 H         1 <0>         0.0881
     70 H34        -3.1266  -10.1226   -6.9250 H         1 <0>         0.0886
@<TRIPOS>BOND
     1    1    2 1
     2    1   38 1
     3    1   39 1
     4    1   40 1
     5    2    3 1
     6    2   41 1
     7    2   42 1
     8    3    4 1
     9    4    9 ar
    10    4    5 ar
    11    5    6 ar
    12    5   43 1
    13    6    7 ar
    14    6   44 1
    15    7    8 ar
    16    7   10 1
    17    8    9 ar
    18    8   45 1
    19    9   46 1
    20   10   11 1
    21   10   27 1
    22   11   12 1
    23   11   47 1
    24   11   48 1
    25   12   13 2
    26   12   14 am
    27   14   15 1
    28   14   49 1
    29   15   16 1
    30   15   17 1
    31   15   21 1
    32   17   18 1
    33   17   50 1
    34   17   51 1
    35   18   19 1
    36   18   20 1
    37   18   52 1
    38   19   53 1
    39   19   54 1
    40   19   55 1
    41   20   56 1
    42   20   57 1
    43   20   58 1
    44   21   26 ar
    45   21   22 ar
    46   22   23 ar
    47   22   59 1
    48   23   24 ar
    49   23   60 1
    50   24   25 ar
    51   24   61 1
    52   25   26 ar
    53   25   62 1
    54   26   63 1
    55   27   28 2
    56   27   29 2
    57   27   30 1
    58   30   35 ar
    59   30   31 ar
    60   31   32 ar
    61   31   64 1
    62   32   33 ar
    63   32   65 1
    64   33   34 ar
    65   33   36 1
    66   34   35 ar
    67   34   66 1
    68   35   67 1
    69   36   37 1
    70   37   68 1
    71   37   69 1
    72   37   70 1
@<TRIPOS>MOLECULE
ZINC16462635
   68    69     0     0     0
SMALL
USER_CHARGES
N-[[1-[(4-bromophenyl)methyl]pyrrol-2-yl]methyl]-N-butyl-2-[isobutyl-(2-methoxyacetyl)amino]acetamide
@<TRIPOS>ATOM
      1 C1         -0.1954    0.9594    4.0527 C.3       1 <0>        -0.1516
      2 C2         -1.2982    0.2838    3.2353 C.3       1 <0>        -0.1222
      3 C3         -1.7963    1.2474    2.1563 C.3       1 <0>        -0.1385
      4 C4         -2.8991    0.5718    1.3388 C.3       1 <0>         0.1058
      5 N1         -3.3760    1.4945    0.3057 N.am      1 <0>        -0.6033
      6 C5         -2.7426    1.5058   -1.0153 C.3       1 <0>         0.1889
      7 C6         -1.5706    2.4531   -1.0022 C.2       1 <0>         0.0004
      8 C7         -1.4307    3.5266   -0.1982 C.2       1 <0>        -0.1671
      9 C8         -0.1947    4.1275   -0.5084 C.2       1 <0>        -0.1988
     10 C9          0.3713    3.4012   -1.4936 C.2       1 <0>        -0.0093
     11 N2         -0.4700    2.3739   -1.8030 N.pl3     1 <0>        -0.4383
     12 C10        -0.2287    1.3509   -2.8236 C.3       1 <0>         0.1441
     13 C11        -0.9263    1.7414   -4.1010 C.ar      1 <0>        -0.0996
     14 C12        -2.2417    1.3715   -4.3109 C.ar      1 <0>        -0.0948
     15 C13        -2.8834    1.7336   -5.4803 C.ar      1 <0>        -0.0882
     16 C14        -2.2060    2.4571   -6.4452 C.ar      1 <0>        -0.0812
     17 C15        -0.8883    2.8224   -6.2371 C.ar      1 <0>        -0.0901
     18 C16        -0.2489    2.4645   -5.0651 C.ar      1 <0>        -0.0923
     19 Br1        -3.0814    2.9471   -8.0482 Br        1 <0>        -0.0441
     20 C17        -4.3975    2.3329    0.5704 C.2       1 <0>         0.5014
     21 O1         -4.7306    3.1612   -0.2505 O.2       1 <0>        -0.5179
     22 C18        -5.1259    2.2411    1.8865 C.3       1 <0>         0.0971
     23 N3         -6.2548    3.1749    1.8860 N.am      1 <0>        -0.5934
     24 C19        -6.0612    4.5583    2.3274 C.3       1 <0>         0.1143
     25 C20        -6.4651    4.6858    3.7976 C.3       1 <0>        -0.1188
     26 C21        -5.5302    3.8344    4.6590 C.3       1 <0>        -0.1496
     27 C22        -6.3638    6.1502    4.2292 C.3       1 <0>        -0.1471
     28 C23        -7.4713    2.7612    1.4795 C.2       1 <0>         0.5248
     29 O2         -7.6537    1.5947    1.2018 O.2       1 <0>        -0.5152
     30 C24        -8.6051    3.7479    1.3701 C.3       1 <0>         0.0446
     31 O3         -9.8088    3.0551    1.0337 O.3       1 <0>        -0.3674
     32 C25       -10.9513    3.9037    0.9049 C.3       1 <0>         0.0295
     33 H1          0.6317    1.2277    3.3953 H         1 <0>         0.0538
     34 H2         -0.5916    1.8590    4.5238 H         1 <0>         0.0538
     35 H3          0.1595    0.2729    4.8214 H         1 <0>         0.0543
     36 H4         -2.1252    0.0155    3.8927 H         1 <0>         0.0629
     37 H5         -0.9020   -0.6158    2.7642 H         1 <0>         0.0621
     38 H6         -0.9693    1.5157    1.4989 H         1 <0>         0.0762
     39 H7         -2.1925    2.1470    2.6274 H         1 <0>         0.0630
     40 H8         -3.7261    0.3035    1.9963 H         1 <0>         0.0819
     41 H9         -2.5029   -0.3278    0.8678 H         1 <0>         0.0814
     42 H10        -3.4659    1.8329   -1.7622 H         1 <0>         0.0957
     43 H11        -2.3958    0.5020   -1.2605 H         1 <0>         0.0787
     44 H12        -2.1346    3.8615    0.5493 H         1 <0>         0.1243
     45 H13         0.2229    5.0079   -0.0425 H         1 <0>         0.1328
     46 H14         1.3265    3.5990   -1.9573 H         1 <0>         0.1593
     47 H15         0.8425    1.2653   -3.0061 H         1 <0>         0.1032
     48 H16        -0.6158    0.3930   -2.4764 H         1 <0>         0.0967
     49 H17        -2.7692    0.8031   -3.5592 H         1 <0>         0.1297
     50 H18        -3.9124    1.4484   -5.6423 H         1 <0>         0.1363
     51 H19        -0.3591    3.3876   -6.9900 H         1 <0>         0.1361
     52 H20         0.7798    2.7500   -4.9023 H         1 <0>         0.1325
     53 H21        -5.4948    1.2252    2.0276 H         1 <0>         0.1161
     54 H22        -4.4440    2.4959    2.6978 H         1 <0>         0.1114
     55 H23        -5.0125    4.8326    2.2136 H         1 <0>         0.0861
     56 H24        -6.6782    5.2225    1.7222 H         1 <0>         0.0807
     57 H25        -7.4910    4.3400    3.9239 H         1 <0>         0.0736
     58 H26        -4.5049    4.1832    4.5363 H         1 <0>         0.0566
     59 H27        -5.8208    3.9217    5.7060 H         1 <0>         0.0586
     60 H28        -5.5990    2.7919    4.3485 H         1 <0>         0.0563
     61 H29        -6.9626    6.7684    3.5603 H         1 <0>         0.0576
     62 H30        -6.7337    6.2548    5.2491 H         1 <0>         0.0607
     63 H31        -5.3229    6.4707    4.1856 H         1 <0>         0.0591
     64 H32        -8.7348    4.2596    2.3237 H         1 <0>         0.0803
     65 H33        -8.3773    4.4784    0.5938 H         1 <0>         0.0837
     66 H34       -11.8235    3.3024    0.6486 H         1 <0>         0.0929
     67 H35       -11.1296    4.4187    1.8489 H         1 <0>         0.0445
     68 H36       -10.7721    4.6375    0.1190 H         1 <0>         0.0448
@<TRIPOS>BOND
     1    1    2 1
     2    1   33 1
     3    1   34 1
     4    1   35 1
     5    2    3 1
     6    2   36 1
     7    2   37 1
     8    3    4 1
     9    3   38 1
    10    3   39 1
    11    4    5 1
    12    4   40 1
    13    4   41 1
    14    5    6 1
    15    5   20 am
    16    6    7 1
    17    6   42 1
    18    6   43 1
    19    7   11 1
    20    7    8 2
    21    8    9 1
    22    8   44 1
    23    9   10 2
    24    9   45 1
    25   10   11 1
    26   10   46 1
    27   11   12 1
    28   12   13 1
    29   12   47 1
    30   12   48 1
    31   13   18 ar
    32   13   14 ar
    33   14   15 ar
    34   14   49 1
    35   15   16 ar
    36   15   50 1
    37   16   17 ar
    38   16   19 1
    39   17   18 ar
    40   17   51 1
    41   18   52 1
    42   20   21 2
    43   20   22 1
    44   22   23 1
    45   22   53 1
    46   22   54 1
    47   23   24 1
    48   23   28 am
    49   24   25 1
    50   24   55 1
    51   24   56 1
    52   25   26 1
    53   25   27 1
    54   25   57 1
    55   26   58 1
    56   26   59 1
    57   26   60 1
    58   27   61 1
    59   27   62 1
    60   27   63 1
    61   28   29 2
    62   28   30 1
    63   30   31 1
    64   30   64 1
    65   30   65 1
    66   31   32 1
    67   32   66 1
    68   32   67 1
    69   32   68 1
@<TRIPOS>MOLECULE
ZINC16652604
   79    81     0     0     0
SMALL
USER_CHARGES
(3R)-N-[2-[(4-fluorophenyl)methyl-(2-furylmethyl)amino]-2-oxo-ethyl]-3,5,5-trimethyl-N-(2-morpholinoethyl)hexanamide
@<TRIPOS>ATOM
      1 C1          6.9988    7.0146    2.3150 C.3       1 <0>        -0.1757
      2 C2          6.6514    7.3463    3.7676 C.3       1 <0>        -0.0760
      3 H1          5.8780    8.1282    3.7902 H         1 <0>         0.0841
      4 C3          6.1273    6.0901    4.4663 C.3       1 <0>        -0.1356
      5 C4          4.8272    5.6679    3.8319 C.2       1 <0>         0.5249
      6 O1          4.3653    6.3087    2.9116 O.2       1 <0>        -0.5275
      7 N1          4.1777    4.5783    4.2873 N.am      1 <0>        -0.5967
      8 C5          4.7357    3.8043    5.3989 C.3       1 <0>         0.1121
      9 C6          5.6545    2.7114    4.8490 C.3       1 <0>         0.0405
     10 N2          6.2139    1.9353    5.9637 N.3       1 <0>        -0.5339
     11 C7          7.1143    2.7613    6.7812 C.3       1 <0>         0.0109
     12 C8          7.6267    1.9327    7.9622 C.3       1 <0>         0.0615
     13 O2          8.2712    0.7555    7.4681 O.3       1 <0>        -0.3840
     14 C9          7.4229   -0.0727    6.6682 C.3       1 <0>         0.0620
     15 C10         6.9085    0.7356    5.4741 C.3       1 <0>         0.0210
     16 C11         2.9138    4.1679    3.6706 C.3       1 <0>         0.0872
     17 C12         3.1941    3.2161    2.5363 C.2       1 <0>         0.5075
     18 O3          4.3370    2.9107    2.2693 O.2       1 <0>        -0.5153
     19 N3          2.1746    2.7043    1.8185 N.am      1 <0>        -0.6033
     20 C13         2.4470    1.7791    0.7158 C.3       1 <0>         0.1534
     21 C14         2.4576    0.3653    1.2373 C.ar      1 <0>        -0.1218
     22 C15         1.2878   -0.3712    1.2603 C.ar      1 <0>        -0.0601
     23 C16         1.2963   -1.6678    1.7383 C.ar      1 <0>        -0.1576
     24 C17         2.4769   -2.2293    2.1943 C.ar      1 <0>         0.1045
     25 C18         3.6479   -1.4908    2.1708 C.ar      1 <0>        -0.1597
     26 C19         3.6370   -0.1943    1.6923 C.ar      1 <0>        -0.0644
     27 F1          2.4863   -3.4966    2.6622 F         1 <0>        -0.1402
     28 C20         0.7939    3.0732    2.1410 C.3       1 <0>         0.1824
     29 C21         0.2377    2.1031    3.1512 C.2       1 <0>        -0.0375
     30 C22         0.3067    2.2338    4.4882 C.2       1 <0>        -0.1952
     31 C23        -0.3381    1.1049    5.0439 C.2       1 <0>        -0.2122
     32 C24        -0.7626    0.3519    4.0133 C.2       1 <0>        -0.0283
     33 O4         -0.4161    0.9644    2.8693 O.3       1 <0>        -0.1650
     34 C25         7.9039    7.8466    4.4900 C.3       1 <0>        -0.1061
     35 C26         8.0780    9.3445    4.2310 C.3       1 <0>        -0.0660
     36 C27         6.9187   10.1108    4.8710 C.3       1 <0>        -0.1463
     37 C28         9.3996    9.8171    4.8398 C.3       1 <0>        -0.1438
     38 C29         8.0896    9.6033    2.7231 C.3       1 <0>        -0.1563
     39 H2          7.3756    7.9178    1.8127 H         1 <0>         0.0776
     40 H3          6.0983    6.6548    1.7956 H         1 <0>         0.0701
     41 H4          7.7722    6.2327    2.2923 H         1 <0>         0.0436
     42 H5          6.8646    5.2800    4.3656 H         1 <0>         0.0914
     43 H6          5.9623    6.3053    5.5324 H         1 <0>         0.0920
     44 H7          5.3122    4.4711    6.0570 H         1 <0>         0.0841
     45 H8          3.9177    3.3421    5.9709 H         1 <0>         0.0885
     46 H9          5.0781    2.0446    4.1909 H         1 <0>         0.0908
     47 H10         6.4726    3.1736    4.2770 H         1 <0>         0.0404
     48 H11         7.9647    3.0940    6.1678 H         1 <0>         0.0448
     49 H12         6.5673    3.6388    7.1564 H         1 <0>         0.0871
     50 H13         8.3445    2.5291    8.5445 H         1 <0>         0.0994
     51 H14         6.7805    1.6476    8.6046 H         1 <0>         0.0607
     52 H15         7.9932   -0.9413    6.3072 H         1 <0>         0.0995
     53 H16         6.5719   -0.4186    7.2733 H         1 <0>         0.0606
     54 H17         6.2100    0.1215    4.8868 H         1 <0>         0.0857
     55 H18         7.7556    1.0356    4.8397 H         1 <0>         0.0440
     56 H19         2.2846    3.6680    4.4218 H         1 <0>         0.1102
     57 H20         2.3894    5.0544    3.2844 H         1 <0>         0.1169
     58 H21         1.6645    1.8814   -0.0505 H         1 <0>         0.0912
     59 H22         3.4263    2.0141    0.2734 H         1 <0>         0.0987
     60 H23         0.3679    0.0655    0.9005 H         1 <0>         0.1323
     61 H24         0.3823   -2.2428    1.7565 H         1 <0>         0.1329
     62 H25         4.5693   -1.9276    2.5265 H         1 <0>         0.1326
     63 H26         4.5503    0.3819    1.6736 H         1 <0>         0.1341
     64 H27         0.7744    4.0902    2.5598 H         1 <0>         0.1148
     65 H28         0.1828    3.0414    1.2269 H         1 <0>         0.1045
     66 H29         0.7669    3.0451    5.0327 H         1 <0>         0.1450
     67 H30        -0.4651    0.8885    6.0944 H         1 <0>         0.1477
     68 H31        -1.2952   -0.5843    4.0923 H         1 <0>         0.2006
     69 H32         7.7985    7.6712    5.5708 H         1 <0>         0.0614
     70 H33         8.7846    7.3048    4.1148 H         1 <0>         0.0636
     71 H34         7.0439   11.1877    4.6848 H         1 <0>         0.0540
     72 H35         6.9103    9.9247    5.9551 H         1 <0>         0.0534
     73 H36         5.9685    9.7710    4.4332 H         1 <0>         0.0591
     74 H37         9.5247   10.8940    4.6536 H         1 <0>         0.0547
     75 H38        10.2331    9.2661    4.3796 H         1 <0>         0.0540
     76 H39         9.3912    9.6310    5.9239 H         1 <0>         0.0538
     77 H40         8.2148   10.6802    2.5369 H         1 <0>         0.0506
     78 H41         7.1393    9.2635    2.2855 H         1 <0>         0.0746
     79 H42         8.9230    9.0523    2.2629 H         1 <0>         0.0556
@<TRIPOS>BOND
     1    1    2 1
     2    1   39 1
     3    1   40 1
     4    1   41 1
     5    2    3 1
     6    2    4 1
     7    2   34 1
     8    4    5 1
     9    4   42 1
    10    4   43 1
    11    5    6 2
    12    5    7 am
    13    7    8 1
    14    7   16 1
    15    8    9 1
    16    8   44 1
    17    8   45 1
    18    9   10 1
    19    9   46 1
    20    9   47 1
    21   10   15 1
    22   10   11 1
    23   11   12 1
    24   11   48 1
    25   11   49 1
    26   12   13 1
    27   12   50 1
    28   12   51 1
    29   13   14 1
    30   14   15 1
    31   14   52 1
    32   14   53 1
    33   15   54 1
    34   15   55 1
    35   16   17 1
    36   16   56 1
    37   16   57 1
    38   17   18 2
    39   17   19 am
    40   19   20 1
    41   19   28 1
    42   20   21 1
    43   20   58 1
    44   20   59 1
    45   21   26 ar
    46   21   22 ar
    47   22   23 ar
    48   22   60 1
    49   23   24 ar
    50   23   61 1
    51   24   25 ar
    52   24   27 1
    53   25   26 ar
    54   25   62 1
    55   26   63 1
    56   28   29 1
    57   28   64 1
    58   28   65 1
    59   29   33 1
    60   29   30 2
    61   30   31 1
    62   30   66 1
    63   31   32 2
    64   31   67 1
    65   32   33 1
    66   32   68 1
    67   34   35 1
    68   34   69 1
    69   34   70 1
    70   35   36 1
    71   35   37 1
    72   35   38 1
    73   36   71 1
    74   36   72 1
    75   36   73 1
    76   37   74 1
    77   37   75 1
    78   37   76 1
    79   38   77 1
    80   38   78 1
    81   38   79 1
@<TRIPOS>MOLECULE
ZINC36516843
   72    73     0     0     0
SMALL
USER_CHARGES

@<TRIPOS>ATOM
      1 C1          1.0282    2.0165   -1.3106 C.3       1 <0>        -0.1550
      2 C2          0.5110    0.5978   -1.0641 C.3       1 <0>        -0.1256
      3 C3          1.2358   -0.3779   -1.9934 C.3       1 <0>        -0.1195
      4 C4          0.7186   -1.7966   -1.7469 C.3       1 <0>        -0.1185
      5 C5          1.4433   -2.7723   -2.6762 C.3       1 <0>        -0.1401
      6 C6          0.9261   -4.1910   -2.4297 C.3       1 <0>         0.1105
      7 N1          1.6201   -5.1252   -3.3195 N.am      1 <0>        -0.5987
      8 C7          2.8633   -5.7660   -2.8832 C.3       1 <0>         0.1790
      9 H1          3.1245   -5.4110   -1.8863 H         1 <0>         0.1313
     10 C8          3.9706   -5.4212   -3.8455 C.ar      1 <0>        -0.0705
     11 C9          4.1734   -6.1960   -4.9722 C.ar      1 <0>        -0.0801
     12 C10         5.1892   -5.8798   -5.8548 C.ar      1 <0>        -0.0653
     13 C11         6.0019   -4.7885   -5.6110 C.ar      1 <0>        -0.0352
     14 C12         5.7986   -4.0132   -4.4848 C.ar      1 <0>        -0.0630
     15 C13         4.7801   -4.3269   -3.6044 C.ar      1 <0>        -0.0930
     16 N2          7.0902   -4.4505   -6.5556 N.pl3     1 <0>         0.0306
     17 O1          7.2683   -5.1288   -7.5404 O.2       1 <0>        -0.1533
     18 O2          7.8010   -3.4960   -6.3424 O.3       1 <0>        -0.1557
     19 C14         2.6734   -7.2606   -2.8505 C.2       1 <0>         0.5074
     20 O3          1.6049   -7.7431   -3.1610 O.2       1 <0>        -0.4812
     21 N3          3.6910   -8.0611   -2.4761 N.am      1 <0>        -0.7090
     22 C15         3.5064   -9.5141   -2.4443 C.3       1 <0>        -0.3596
     23 S1          4.0876  -10.2318   -4.0056 S.o2      1 <0>         2.4662
     24 O4          3.9738  -11.6477   -3.9658 O.2       1 <0>        -0.9303
     25 O5          3.5719   -9.4942   -5.1053 O.2       1 <0>        -0.9113
     26 C16         5.8218   -9.9207   -4.0292 C.ar      1 <0>        -0.6655
     27 C17         6.3068   -8.7520   -4.5858 C.ar      1 <0>        -0.0245
     28 C18         7.6673   -8.5079   -4.6043 C.ar      1 <0>        -0.1386
     29 C19         8.5428   -9.4323   -4.0658 C.ar      1 <0>        -0.0239
     30 C20         8.0577  -10.6005   -3.5084 C.ar      1 <0>        -0.1385
     31 C21         6.6969  -10.8427   -3.4860 C.ar      1 <0>        -0.0190
     32 C22        10.0260   -9.1666   -4.0869 C.3       1 <0>        -0.1282
     33 C23         1.1150   -5.3953   -4.5395 C.2       1 <0>         0.5557
     34 O6          1.6332   -6.2456   -5.2376 O.2       1 <0>        -0.5049
     35 C24        -0.0633   -4.6615   -5.0266 C.2       1 <0>        -0.2428
     36 C25        -0.4848   -4.8346   -6.2760 C.2       1 <0>        -0.0202
     37 C26         0.3365   -5.6487   -7.2423 C.3       1 <0>        -0.1273
     38 C27        -1.7837   -4.2167   -6.7255 C.3       1 <0>        -0.1293
     39 H2          2.0992    2.0525   -1.1113 H         1 <0>         0.0534
     40 H3          0.8420    2.2960   -2.3476 H         1 <0>         0.0536
     41 H4          0.5118    2.7116   -0.6486 H         1 <0>         0.0541
     42 H5          0.6972    0.3182   -0.0272 H         1 <0>         0.0607
     43 H6         -0.5600    0.5618   -1.2634 H         1 <0>         0.0610
     44 H7          1.0496   -0.0984   -3.0304 H         1 <0>         0.0616
     45 H8          2.3068   -0.3419   -1.7941 H         1 <0>         0.0610
     46 H9          0.9048   -2.0762   -0.7100 H         1 <0>         0.0644
     47 H10        -0.3525   -1.8326   -1.9462 H         1 <0>         0.0650
     48 H11         1.2571   -2.4927   -3.7132 H         1 <0>         0.0701
     49 H12         2.5144   -2.7363   -2.4769 H         1 <0>         0.0653
     50 H13         1.1124   -4.4705   -1.3928 H         1 <0>         0.0807
     51 H14        -0.1449   -4.2270   -2.6290 H         1 <0>         0.0893
     52 H15         3.5385   -7.0486   -5.1626 H         1 <0>         0.1823
     53 H16         5.3481   -6.4856   -6.7347 H         1 <0>         0.1564
     54 H17         6.4338   -3.1608   -4.2941 H         1 <0>         0.1561
     55 H18         4.6188   -3.7189   -2.7264 H         1 <0>         0.1484
     56 H19         4.5456   -7.6752   -2.2278 H         1 <0>         0.4119
     57 H20         4.0771   -9.9348   -1.6164 H         1 <0>         0.1464
     58 H21         2.4492   -9.7432   -2.3104 H         1 <0>         0.1567
     59 H22         5.6229   -8.0298   -5.0066 H         1 <0>         0.1361
     60 H23         8.0463   -7.5952   -5.0399 H         1 <0>         0.1267
     61 H24         8.7417  -11.3229   -3.0879 H         1 <0>         0.1353
     62 H25         6.3176  -11.7537   -3.0472 H         1 <0>         0.1427
     63 H26        10.3132   -8.6371   -3.1785 H         1 <0>         0.0805
     64 H27        10.5639  -10.1131   -4.1412 H         1 <0>         0.0755
     65 H28        10.2737   -8.5576   -4.9562 H         1 <0>         0.0745
     66 H29        -0.5860   -3.9822   -4.3695 H         1 <0>         0.1268
     67 H30         0.1022   -6.7059   -7.1174 H         1 <0>         0.0839
     68 H31         0.1052   -5.3434   -8.2628 H         1 <0>         0.0555
     69 H32         1.3962   -5.4857   -7.0457 H         1 <0>         0.0867
     70 H33        -2.2322   -3.6700   -5.8960 H         1 <0>         0.0673
     71 H34        -1.5934   -3.5316   -7.5516 H         1 <0>         0.0762
     72 H35        -2.4650   -5.0016   -7.0539 H         1 <0>         0.0806
@<TRIPOS>BOND
     1    1    2 1
     2    1   39 1
     3    1   40 1
     4    1   41 1
     5    2    3 1
     6    2   42 1
     7    2   43 1
     8    3    4 1
     9    3   44 1
    10    3   45 1
    11    4    5 1
    12    4   46 1
    13    4   47 1
    14    5    6 1
    15    5   48 1
    16    5   49 1
    17    6    7 1
    18    6   50 1
    19    6   51 1
    20    7    8 1
    21    7   33 am
    22    8    9 1
    23    8   10 1
    24    8   19 1
    25   10   15 ar
    26   10   11 ar
    27   11   12 ar
    28   11   52 1
    29   12   13 ar
    30   12   53 1
    31   13   14 ar
    32   13   16 1
    33   14   15 ar
    34   14   54 1
    35   15   55 1
    36   16   17 2
    37   16   18 1
    38   19   20 2
    39   19   21 am
    40   21   22 1
    41   21   56 1
    42   22   23 1
    43   22   57 1
    44   22   58 1
    45   23   24 2
    46   23   25 2
    47   23   26 1
    48   26   31 ar
    49   26   27 ar
    50   27   28 ar
    51   27   59 1
    52   28   29 ar
    53   28   60 1
    54   29   30 ar
    55   29   32 1
    56   30   31 ar
    57   30   61 1
    58   31   62 1
    59   32   63 1
    60   32   64 1
    61   32   65 1
    62   33   34 2
    63   33   35 1
    64   35   36 2
    65   35   66 1
    66   36   37 1
    67   36   38 1
    68   37   67 1
    69   37   68 1
    70   37   69 1
    71   38   70 1
    72   38   71 1
    73   38   72 1
@<TRIPOS>MOLECULE
ZINC40018828
   66    68     0     0     0
SMALL
USER_CHARGES

@<TRIPOS>ATOM
      1 C1         -0.9248    1.2659   -0.6588 C.3       1 <0>        -0.1564
      2 C2         -0.7391   -0.2371   -0.4417 C.3       1 <0>        -0.1216
      3 C3         -2.1089   -0.9131   -0.3559 C.3       1 <0>        -0.1452
      4 C4         -1.9232   -2.4162   -0.1388 C.3       1 <0>        -0.0186
      5 N1         -3.2332   -3.0456    0.0755 N.4       1 <0>        -0.3842
      6 C5         -4.0344   -2.9386   -1.1511 C.3       1 <0>        -0.0127
      7 C6         -5.4461   -3.4655   -0.8857 C.3       1 <0>        -0.1506
      8 C7         -6.3194   -3.2281   -2.1194 C.3       1 <0>        -0.1192
      9 C8         -7.7310   -3.7550   -1.8540 C.3       1 <0>        -0.1587
     10 C9         -3.0460   -4.4622    0.4161 C.3       1 <0>        -0.0095
     11 C10        -2.3195   -4.5724    1.7581 C.3       1 <0>        -0.1804
     12 C11        -2.1246   -6.0479    2.1129 C.3       1 <0>         0.1454
     13 N2         -1.4290   -6.1534    3.3979 N.am      1 <0>        -0.6136
     14 C12         0.0249   -6.2077    3.5914 C.3       1 <0>         0.2629
     15 H1          0.4377   -7.0818    3.0879 H         1 <0>         0.0810
     16 C13         0.2470   -6.3135    5.0822 C.2       1 <0>        -0.4951
     17 C14        -0.9762   -6.3173    5.6598 C.2       1 <0>         0.2673
     18 C15        -2.0095   -6.2120    4.6102 C.2       1 <0>         0.5164
     19 O1         -3.2076   -6.1849    4.8116 O.2       1 <0>        -0.5258
     20 O2         -1.2150   -6.3997    6.9898 O.3       1 <0>        -0.6313
     21 C16         1.5404   -6.3966    5.7707 C.2       1 <0>         0.5334
     22 O3          1.8310   -5.5753    6.6226 O.2       1 <0>        -0.4538
     23 C17         2.4826   -7.4677    5.4336 C.2       1 <0>        -0.0685
     24 C18         3.6811   -7.7231    6.0647 C.2       1 <0>        -0.1524
     25 C19         4.2452   -8.8315    5.4169 C.2       1 <0>        -0.2226
     26 C20         3.3884   -9.2010    4.4378 C.2       1 <0>        -0.0312
     27 O4          2.3285   -8.3827    4.4541 O.3       1 <0>        -0.1500
     28 C21         0.6659   -4.9523    3.0584 C.ar      1 <0>        -0.0662
     29 C22         0.1587   -3.7147    3.4090 C.ar      1 <0>        -0.0806
     30 C23         0.7462   -2.5629    2.9204 C.ar      1 <0>        -0.1255
     31 C24         1.8412   -2.6479    2.0809 C.ar      1 <0>        -0.0988
     32 C25         2.3492   -3.8856    1.7303 C.ar      1 <0>        -0.0895
     33 C26         1.7640   -5.0380    2.2238 C.ar      1 <0>        -0.0834
     34 Br1         3.8466   -4.0024    0.5815 Br        1 <0>        -0.0531
     35 H2          0.0511    1.7475   -0.7199 H         1 <0>         0.0653
     36 H3         -1.4717    1.4342   -1.5865 H         1 <0>         0.0565
     37 H4         -1.4861    1.6869    0.1754 H         1 <0>         0.0584
     38 H5         -0.1778   -0.6581   -1.2758 H         1 <0>         0.0727
     39 H6         -0.1922   -0.4054    0.4860 H         1 <0>         0.0759
     40 H7         -2.6703   -0.4922    0.4782 H         1 <0>         0.0848
     41 H8         -2.6559   -0.7449   -1.2836 H         1 <0>         0.0843
     42 H9         -1.4490   -2.8543   -1.0170 H         1 <0>         0.1294
     43 H10        -1.2932   -2.5820    0.7351 H         1 <0>         0.1348
     44 H11        -4.0883   -1.8946   -1.4599 H         1 <0>         0.1300
     45 H12        -3.5693   -3.5277   -1.9414 H         1 <0>         0.1286
     46 H13        -5.4011   -4.5335   -0.6725 H         1 <0>         0.0889
     47 H14        -5.8746   -2.9421   -0.0310 H         1 <0>         0.0859
     48 H15        -6.3643   -2.1601   -2.3326 H         1 <0>         0.0710
     49 H16        -5.8909   -3.7515   -2.9740 H         1 <0>         0.0720
     50 H17        -7.6861   -4.8230   -1.6407 H         1 <0>         0.0598
     51 H18        -8.1595   -3.2315   -0.9993 H         1 <0>         0.0591
     52 H19        -8.3532   -3.5858   -2.7329 H         1 <0>         0.0644
     53 H20        -4.0180   -4.9501    0.4880 H         1 <0>         0.1337
     54 H21        -2.4526   -4.9469   -0.3591 H         1 <0>         0.1305
     55 H22        -1.3475   -4.0845    1.6863 H         1 <0>         0.0959
     56 H23        -2.9130   -4.0877    2.5334 H         1 <0>         0.0920
     57 H24        -3.0966   -6.5358    2.1847 H         1 <0>         0.0887
     58 H25        -1.5312   -6.5326    1.3376 H         1 <0>         0.0849
     59 H26         4.1031   -7.1765    6.8951 H         1 <0>         0.1537
     60 H27         5.1879   -9.3018    5.6549 H         1 <0>         0.1503
     61 H28         3.5337  -10.0256    3.7555 H         1 <0>         0.2032
     62 H29        -0.6970   -3.6480    4.0645 H         1 <0>         0.1252
     63 H30         0.3495   -1.5965    3.1943 H         1 <0>         0.1280
     64 H31         2.2998   -1.7479    1.6986 H         1 <0>         0.1289
     65 H32         2.1627   -6.0046    1.9533 H         1 <0>         0.1324
     66 H33        -3.7112   -2.5783    0.8313 H         1 <0>         0.4227
@<TRIPOS>BOND
     1    1    2 1
     2    1   35 1
     3    1   36 1
     4    1   37 1
     5    2    3 1
     6    2   38 1
     7    2   39 1
     8    3    4 1
     9    3   40 1
    10    3   41 1
    11    4    5 1
    12    4   42 1
    13    4   43 1
    14    5    6 1
    15    5   10 1
    16    5   66 1
    17    6    7 1
    18    6   44 1
    19    6   45 1
    20    7    8 1
    21    7   46 1
    22    7   47 1
    23    8    9 1
    24    8   48 1
    25    8   49 1
    26    9   50 1
    27    9   51 1
    28    9   52 1
    29   10   11 1
    30   10   53 1
    31   10   54 1
    32   11   12 1
    33   11   55 1
    34   11   56 1
    35   12   13 1
    36   12   57 1
    37   12   58 1
    38   13   18 am
    39   13   14 1
    40   14   15 1
    41   14   16 1
    42   14   28 1
    43   16   17 2
    44   16   21 1
    45   17   18 1
    46   17   20 1
    47   18   19 2
    48   21   22 2
    49   21   23 1
    50   23   27 1
    51   23   24 2
    52   24   25 1
    53   24   59 1
    54   25   26 2
    55   25   60 1
    56   26   27 1
    57   26   61 1
    58   28   33 ar
    59   28   29 ar
    60   29   30 ar
    61   29   62 1
    62   30   31 ar
    63   30   63 1
    64   31   32 ar
    65   31   64 1
    66   32   33 ar
    67   32   34 1
    68   33   65 1
@<TRIPOS>MOLECULE
ZINC40981479
   71    74     0     0     0
SMALL
USER_CHARGES

@<TRIPOS>ATOM
      1 C1          0.2004    1.0954   -0.9242 C.3       1 <0>        -0.1503
      2 C2          0.1533   -0.4197   -0.7164 C.3       1 <0>        -0.1226
      3 C3         -1.3030   -0.8726   -0.5935 C.3       1 <0>         0.0567
      4 O1         -1.3471   -2.2876   -0.3995 O.3       1 <0>        -0.3013
      5 C4         -2.5762   -2.8552   -0.2706 C.ar      1 <0>         0.1198
      6 C5         -3.7147   -2.0680   -0.3354 C.ar      1 <0>        -0.1714
      7 C6         -4.9634   -2.6466   -0.2047 C.ar      1 <0>        -0.0773
      8 C7         -5.0797   -4.0103   -0.0088 C.ar      1 <0>        -0.1065
      9 C8         -3.9478   -4.8012    0.0573 C.ar      1 <0>        -0.1458
     10 C9         -2.6935   -4.2285   -0.0791 C.ar      1 <0>         0.1061
     11 O2         -1.5793   -5.0060   -0.0203 O.3       1 <0>        -0.3015
     12 C10        -1.7758   -6.4074    0.1783 C.3       1 <0>         0.0517
     13 C11        -0.4185   -7.1123    0.2170 C.3       1 <0>        -0.1511
     14 C12        -6.4434   -4.6357    0.1336 C.3       1 <0>         0.2888
     15 H1         -6.3367   -5.7106    0.2801 H         1 <0>         0.1111
     16 C13        -7.2471   -4.3763   -1.1126 C.2       1 <0>        -0.2749
     17 C14        -8.2743   -3.5135   -1.1552 C.2       1 <0>         0.2281
     18 N1         -8.6798   -2.8045   -0.0523 N.pl3     1 <0>        -0.6079
     19 C15        -8.1718   -3.1932    1.1797 C.2       1 <0>         0.5054
     20 N2         -7.1287   -4.0530    1.2843 N.pl3     1 <0>        -0.3794
     21 N3         -6.8894   -4.2276    2.6465 N.2       1 <0>        -0.2615
     22 C16        -7.7682   -3.4838    3.2834 C.2       1 <0>         0.2184
     23 N4         -8.5429   -2.8573    2.3852 N.2       1 <0>        -0.5437
     24 S1         -7.9054   -3.3348    5.0337 S.3       1 <0>         0.0174
     25 C17        -9.2858   -2.1817    5.2692 C.3       1 <0>        -0.1056
     26 C18        -9.5160   -1.9605    6.7655 C.3       1 <0>        -0.1104
     27 C19       -10.6803   -0.9879    6.9641 C.3       1 <0>        -0.1458
     28 C20        -9.0063   -3.3162   -2.4576 C.3       1 <0>        -0.1381
     29 C21        -6.9039   -5.0734   -2.2924 C.2       1 <0>         0.5447
     30 O3         -7.2872   -6.2167   -2.4571 O.2       1 <0>        -0.4898
     31 O4         -6.1510   -4.4714   -3.2371 O.3       1 <0>        -0.3343
     32 C22        -5.8420   -5.2353   -4.4046 C.3       1 <0>         0.1051
     33 C23        -5.0004   -4.4056   -5.3396 C.ar      1 <0>        -0.0981
     34 C24        -5.6069   -3.6118   -6.2950 C.ar      1 <0>        -0.0957
     35 C25        -4.8349   -2.8507   -7.1528 C.ar      1 <0>        -0.1230
     36 C26        -3.4564   -2.8831   -7.0547 C.ar      1 <0>        -0.1077
     37 C27        -2.8500   -3.6763   -6.0987 C.ar      1 <0>        -0.1209
     38 C28        -3.6221   -4.4341   -5.2382 C.ar      1 <0>        -0.0915
     39 H2          1.2379    1.4180   -1.0117 H         1 <0>         0.0657
     40 H3         -0.3387    1.3541   -1.8356 H         1 <0>         0.0574
     41 H4         -0.2644    1.5935   -0.0734 H         1 <0>         0.0575
     42 H5          0.6181   -0.9178   -1.5672 H         1 <0>         0.0742
     43 H6          0.6923   -0.6784    0.1950 H         1 <0>         0.0743
     44 H7         -1.7679   -0.3745    0.2573 H         1 <0>         0.0612
     45 H8         -1.8421   -0.6139   -1.5049 H         1 <0>         0.0619
     46 H9         -3.6265   -1.0025   -0.4877 H         1 <0>         0.1362
     47 H10        -5.8500   -2.0320   -0.2554 H         1 <0>         0.1159
     48 H11        -4.0415   -5.8661    0.2109 H         1 <0>         0.1363
     49 H12        -2.2973   -6.5711    1.1214 H         1 <0>         0.0625
     50 H13        -2.3714   -6.8105   -0.6408 H         1 <0>         0.0604
     51 H14        -0.5684   -8.1813    0.3685 H         1 <0>         0.0791
     52 H15         0.1030   -6.9487   -0.7261 H         1 <0>         0.0666
     53 H16         0.1771   -6.7093    1.0362 H         1 <0>         0.0674
     54 H17        -9.2972   -2.0604   -0.1307 H         1 <0>         0.4421
     55 H18        -9.0495   -1.2300    4.7933 H         1 <0>         0.0930
     56 H19       -10.1877   -2.5982    4.8205 H         1 <0>         0.0932
     57 H20        -9.7523   -2.9122    7.2414 H         1 <0>         0.0744
     58 H21        -8.6141   -1.5440    7.2141 H         1 <0>         0.0743
     59 H22       -11.5822   -1.4044    6.5154 H         1 <0>         0.0579
     60 H23       -10.8443   -0.8303    8.0301 H         1 <0>         0.0631
     61 H24       -10.4439   -0.0362    6.4882 H         1 <0>         0.0578
     62 H25        -9.7709   -4.0856   -2.5648 H         1 <0>         0.1002
     63 H26        -9.4768   -2.3330   -2.4647 H         1 <0>         0.0918
     64 H27        -8.3008   -3.3873   -3.2854 H         1 <0>         0.0981
     65 H28        -5.2908   -6.1308   -4.1174 H         1 <0>         0.0785
     66 H29        -6.7663   -5.5227   -4.9059 H         1 <0>         0.0794
     67 H30        -6.6839   -3.5865   -6.3716 H         1 <0>         0.1236
     68 H31        -5.3088   -2.2311   -7.8997 H         1 <0>         0.1256
     69 H32        -2.8533   -2.2891   -7.7253 H         1 <0>         0.1246
     70 H33        -1.7730   -3.7019   -6.0224 H         1 <0>         0.1255
     71 H34        -3.1484   -5.0509   -4.4888 H         1 <0>         0.1229
@<TRIPOS>BOND
     1    1    2 1
     2    1   39 1
     3    1   40 1
     4    1   41 1
     5    2    3 1
     6    2   42 1
     7    2   43 1
     8    3    4 1
     9    3   44 1
    10    3   45 1
    11    4    5 1
    12    5   10 ar
    13    5    6 ar
    14    6    7 ar
    15    6   46 1
    16    7    8 ar
    17    7   47 1
    18    8    9 ar
    19    8   14 1
    20    9   10 ar
    21    9   48 1
    22   10   11 1
    23   11   12 1
    24   12   13 1
    25   12   49 1
    26   12   50 1
    27   13   51 1
    28   13   52 1
    29   13   53 1
    30   14   15 1
    31   14   20 1
    32   14   16 1
    33   16   17 2
    34   16   29 1
    35   17   18 1
    36   17   28 1
    37   18   19 1
    38   18   54 1
    39   19   23 2
    40   19   20 1
    41   20   21 1
    42   21   22 2
    43   22   23 1
    44   22   24 1
    45   24   25 1
    46   25   26 1
    47   25   55 1
    48   25   56 1
    49   26   27 1
    50   26   57 1
    51   26   58 1
    52   27   59 1
    53   27   60 1
    54   27   61 1
    55   28   62 1
    56   28   63 1
    57   28   64 1
    58   29   30 2
    59   29   31 1
    60   31   32 1
    61   32   33 1
    62   32   65 1
    63   32   66 1
    64   33   38 ar
    65   33   34 ar
    66   34   35 ar
    67   34   67 1
    68   35   36 ar
    69   35   68 1
    70   36   37 ar
    71   36   69 1
    72   37   38 ar
    73   37   70 1
    74   38   71 1
@<TRIPOS>MOLECULE
ZINC12402136
   68    70     0     0     0
SMALL
USER_CHARGES
bis(2-methoxyethyl) (1R,2R,3S,4R)-2-(4-fluoro-3-phenoxy-phenyl)-4-hydroxy-4-methyl-6-oxo-cyclohexane-1,3-dicarboxylate
@<TRIPOS>ATOM
      1 C1         -6.2852    6.9988   -3.0086 C.3       1 <0>        -0.1882
      2 C2         -5.7678    6.6494   -1.6118 C.3       1 <0>         0.1371
      3 C3         -6.7149    7.2296   -0.5561 C.3       1 <0>        -0.1814
      4 C4         -6.2595    6.7608    0.8081 C.2       1 <0>         0.3837
      5 O1         -6.0863    7.5480    1.7074 O.2       1 <0>        -0.4230
      6 C5         -6.0261    5.2809    1.0169 C.3       1 <0>        -0.1210
      7 H1         -6.9010    4.7977    0.9845 H         1 <0>         0.1330
      8 C6         -5.1040    4.7714   -0.0958 C.3       1 <0>        -0.0096
      9 H2         -5.0021    3.6891   -0.0164 H         1 <0>         0.1121
     10 C7         -5.7040    5.1291   -1.4566 C.3       1 <0>        -0.0658
     11 H3         -6.7097    4.7150   -1.5293 H         1 <0>         0.1309
     12 C8         -4.8449    4.5495   -2.5508 C.2       1 <0>         0.4744
     13 O2         -3.8125    3.9862   -2.2738 O.2       1 <0>        -0.4783
     14 O3         -5.2267    4.6591   -3.8329 O.3       1 <0>        -0.3428
     15 C9         -4.3501    4.0775   -4.8337 C.3       1 <0>         0.0688
     16 C10        -4.9463    4.2998   -6.2251 C.3       1 <0>         0.0606
     17 O4         -4.9735    5.6991   -6.5137 O.3       1 <0>        -0.3849
     18 C11        -5.5153    6.0175   -7.7971 C.3       1 <0>         0.0306
     19 C12        -3.7484    5.4154    0.0406 C.ar      1 <0>        -0.0403
     20 C13        -3.6436    6.7097    0.5154 C.ar      1 <0>        -0.0773
     21 C14        -2.4018    7.3043    0.6417 C.ar      1 <0>        -0.1416
     22 C15        -1.2601    6.6026    0.2983 C.ar      1 <0>         0.0804
     23 C16        -1.3643    5.3040   -0.1843 C.ar      1 <0>         0.0674
     24 C17        -2.6120    4.7116   -0.3093 C.ar      1 <0>        -0.1040
     25 O5         -0.2450    4.6134   -0.5280 O.3       1 <0>        -0.2581
     26 C18        -0.4002    3.3883   -1.0950 C.ar      1 <0>         0.0868
     27 C19        -0.7679    3.2813   -2.4287 C.ar      1 <0>        -0.1093
     28 C20        -0.9246    2.0347   -3.0028 C.ar      1 <0>        -0.1035
     29 C21        -0.7149    0.8941   -2.2498 C.ar      1 <0>        -0.1196
     30 C22        -0.3535    0.9980   -0.9191 C.ar      1 <0>        -0.1085
     31 C23        -0.1908    2.2422   -0.3415 C.ar      1 <0>        -0.1219
     32 F1         -0.0461    7.1813    0.4268 F         1 <0>        -0.1384
     33 C24        -5.3768    5.0511    2.3572 C.2       1 <0>         0.4731
     34 O6         -4.2872    4.5326    2.4198 O.2       1 <0>        -0.4770
     35 O7         -6.0089    5.4223    3.4817 O.3       1 <0>        -0.3362
     36 C25        -5.3240    5.1701    4.7369 C.3       1 <0>         0.0713
     37 C26        -6.1925    5.6569    5.8986 C.3       1 <0>         0.0612
     38 O8         -7.3891    4.8779    5.9578 O.3       1 <0>        -0.3871
     39 C27        -8.2753    5.2532    7.0141 C.3       1 <0>         0.0305
     40 O9         -4.4618    7.2018   -1.4354 O.3       1 <0>        -0.5250
     41 H4         -6.3316    8.0823   -3.1184 H         1 <0>         0.0662
     42 H5         -5.6114    6.5860   -3.7594 H         1 <0>         0.0984
     43 H6         -7.2812    6.5770   -3.1432 H         1 <0>         0.0719
     44 H7         -7.6466    6.9129   -0.7341 H         1 <0>         0.1086
     45 H8         -6.6864    8.3184   -0.5975 H         1 <0>         0.1116
     46 H9         -3.3702    4.5518   -4.7783 H         1 <0>         0.0802
     47 H10        -4.2471    3.0082   -4.6492 H         1 <0>         0.0872
     48 H11        -4.3355    3.7873   -6.9683 H         1 <0>         0.0731
     49 H12        -5.9613    3.9033   -6.2531 H         1 <0>         0.0624
     50 H13        -4.9163    5.5407   -8.5729 H         1 <0>         0.0423
     51 H14        -6.5421    5.6567   -7.8576 H         1 <0>         0.0433
     52 H15        -5.5010    7.0981   -7.9396 H         1 <0>         0.0882
     53 H16        -4.5335    7.2573    0.7885 H         1 <0>         0.1344
     54 H17        -2.3227    8.3156    1.0124 H         1 <0>         0.1335
     55 H18        -2.6954    3.7005   -0.6797 H         1 <0>         0.1501
     56 H19        -0.9318    4.1719   -3.0173 H         1 <0>         0.1243
     57 H20        -1.2108    1.9508   -4.0408 H         1 <0>         0.1241
     58 H21        -0.8379   -0.0796   -2.7005 H         1 <0>         0.1250
     59 H22        -0.1946    0.1056   -0.3320 H         1 <0>         0.1286
     60 H23         0.0955    2.3227    0.6968 H         1 <0>         0.1292
     61 H24        -5.1416    4.1007    4.8429 H         1 <0>         0.0808
     62 H25        -4.3734    5.7034    4.7456 H         1 <0>         0.0890
     63 H26        -5.6424    5.5494    6.8334 H         1 <0>         0.0752
     64 H27        -6.4487    6.7054    5.7463 H         1 <0>         0.0647
     65 H28        -7.7684    5.1374    7.9721 H         1 <0>         0.0426
     66 H29        -8.5747    6.2933    6.8849 H         1 <0>         0.0436
     67 H30        -9.1588    4.6153    6.9910 H         1 <0>         0.0881
     68 H31        -4.4121    8.1537   -1.5977 H         1 <0>         0.3746
@<TRIPOS>BOND
     1    1    2 1
     2    1   41 1
     3    1   42 1
     4    1   43 1
     5    2   10 1
     6    2    3 1
     7    2   40 1
     8    3    4 1
     9    3   44 1
    10    3   45 1
    11    4    5 2
    12    4    6 1
    13    6    7 1
    14    6    8 1
    15    6   33 1
    16    8    9 1
    17    8   10 1
    18    8   19 1
    19   10   11 1
    20   10   12 1
    21   12   13 2
    22   12   14 1
    23   14   15 1
    24   15   16 1
    25   15   46 1
    26   15   47 1
    27   16   17 1
    28   16   48 1
    29   16   49 1
    30   17   18 1
    31   18   50 1
    32   18   51 1
    33   18   52 1
    34   19   24 ar
    35   19   20 ar
    36   20   21 ar
    37   20   53 1
    38   21   22 ar
    39   21   54 1
    40   22   23 ar
    41   22   32 1
    42   23   24 ar
    43   23   25 1
    44   24   55 1
    45   25   26 1
    46   26   31 ar
    47   26   27 ar
    48   27   28 ar
    49   27   56 1
    50   28   29 ar
    51   28   57 1
    52   29   30 ar
    53   29   58 1
    54   30   31 ar
    55   30   59 1
    56   31   60 1
    57   33   34 2
    58   33   35 1
    59   35   36 1
    60   36   37 1
    61   36   61 1
    62   36   62 1
    63   37   38 1
    64   37   63 1
    65   37   64 1
    66   38   39 1
    67   39   65 1
    68   39   66 1
    69   39   67 1
    70   40   68 1
@<TRIPOS>MOLECULE
ZINC33748587
   73    75     0     0     0
SMALL
USER_CHARGES
3-chloro-N-[2-[2-(3,4-dimethoxyphenyl)ethyl-(2-thienylmethyl)amino]-2-oxo-ethyl]-2,2-dimethyl-N-[[(2R)-tetrahydrofuran-2-yl]methyl]propanamide
@<TRIPOS>ATOM
      1 C1         -4.5386    7.7011   -1.8383 C.3       1 <0>        -0.1673
      2 C2         -5.5148    6.7274   -1.1752 C.3       1 <0>        -0.0905
      3 C3         -6.6525    7.5129   -0.5199 C.3       1 <0>        -0.1322
      4 C4         -4.7780    5.9127   -0.1102 C.3       1 <0>        -0.0385
      5 Cl1        -3.9313    7.0308    1.0228 Cl        1 <0>        -0.1607
      6 C5         -6.0814    5.7970   -2.2166 C.2       1 <0>         0.5322
      7 O1         -7.2795    5.6214   -2.2854 O.2       1 <0>        -0.5197
      8 N1         -5.2568    5.1601   -3.0714 N.am      1 <0>        -0.5814
      9 C6         -5.8121    4.3416   -4.1522 C.3       1 <0>         0.1216
     10 C7         -5.9959    2.9044   -3.6607 C.3       1 <0>         0.0586
     11 H1         -6.6211    2.9000   -2.7556 H         1 <0>         0.0746
     12 C8         -6.5799    2.0348   -4.7909 C.3       1 <0>        -0.1500
     13 C9         -5.5317    0.9125   -4.9864 C.3       1 <0>        -0.1553
     14 C10        -4.7724    0.9384   -3.6354 C.3       1 <0>         0.0511
     15 O2         -4.7215    2.3429   -3.3046 O.3       1 <0>        -0.3672
     16 C11        -3.8051    5.2862   -2.9199 C.3       1 <0>         0.0649
     17 C12        -3.2891    6.3306   -3.8759 C.2       1 <0>         0.5039
     18 O3         -4.0582    6.9124   -4.6114 O.2       1 <0>        -0.5147
     19 N2         -1.9729    6.6182   -3.9136 N.am      1 <0>        -0.6083
     20 C13        -1.4713    7.6336   -4.8429 C.3       1 <0>         0.1202
     21 C14        -1.1034    6.9711   -6.1721 C.3       1 <0>        -0.0942
     22 C15        -0.5874    8.0155   -7.1281 C.ar      1 <0>        -0.0782
     23 C16        -1.4648    8.6737   -7.9698 C.ar      1 <0>        -0.1078
     24 C17        -0.9971    9.6366   -8.8446 C.ar      1 <0>        -0.1694
     25 C18         0.3551    9.9359   -8.8871 C.ar      1 <0>         0.0973
     26 C19         1.2390    9.2694   -8.0439 C.ar      1 <0>         0.1008
     27 C20         0.7629    8.3093   -7.1655 C.ar      1 <0>        -0.1678
     28 O4          2.5670    9.5599   -8.0816 O.3       1 <0>        -0.3060
     29 C21         3.4149    8.8366   -7.1873 C.3       1 <0>         0.0233
     30 O5          0.8176   10.8786   -9.7513 O.3       1 <0>        -0.3070
     31 C22        -0.1470   11.5220  -10.5866 C.3       1 <0>         0.0226
     32 C23        -1.0439    5.9155   -3.0251 C.3       1 <0>         0.1864
     33 C24        -0.5350    4.6739   -3.7110 C.2       1 <0>        -0.1831
     34 C25         0.5551    4.5217   -4.5022 C.2       1 <0>        -0.1330
     35 C26         0.8315    3.2743   -5.0297 C.2       1 <0>        -0.1617
     36 C27         0.0044    2.2402   -4.7403 C.2       1 <0>        -0.1684
     37 S1         -1.2152    3.0233   -3.6979 S.3       1 <0>         0.0638
     38 H2         -3.7206    7.1363   -2.3094 H         1 <0>         0.0678
     39 H3         -4.1250    8.3802   -1.0782 H         1 <0>         0.0811
     40 H4         -5.0683    8.2868   -2.6040 H         1 <0>         0.0744
     41 H5         -7.3543    6.8128   -0.0432 H         1 <0>         0.0687
     42 H6         -7.1822    8.0986   -1.2856 H         1 <0>         0.0677
     43 H7         -6.2389    8.1920    0.2402 H         1 <0>         0.0727
     44 H8         -5.5014    5.3019    0.4497 H         1 <0>         0.1070
     45 H9         -4.0414    5.2556   -0.5957 H         1 <0>         0.1012
     46 H10        -6.7856    4.7514   -4.4594 H         1 <0>         0.1002
     47 H11        -5.1234    4.3506   -5.0099 H         1 <0>         0.0848
     48 H12        -7.5573    1.6373   -4.4799 H         1 <0>         0.0787
     49 H13        -6.7042    2.6460   -5.6970 H         1 <0>         0.0795
     50 H14        -6.0465   -0.0416   -5.1724 H         1 <0>         0.0803
     51 H15        -4.8895    1.1562   -5.8456 H         1 <0>         0.0764
     52 H16        -5.3303    0.3526   -2.8900 H         1 <0>         0.0611
     53 H17        -3.7711    0.5031   -3.7691 H         1 <0>         0.0917
     54 H18        -3.5687    5.5849   -1.8880 H         1 <0>         0.1202
     55 H19        -3.3281    4.3198   -3.1402 H         1 <0>         0.1209
     56 H20        -2.2505    8.3910   -5.0139 H         1 <0>         0.0912
     57 H21        -0.5800    8.1149   -4.4140 H         1 <0>         0.0821
     58 H22        -0.3242    6.2137   -6.0010 H         1 <0>         0.0792
     59 H23        -1.9947    6.4898   -6.6010 H         1 <0>         0.0763
     60 H24        -2.5183    8.4380   -7.9410 H         1 <0>         0.1274
     61 H25        -1.6851   10.1522   -9.4982 H         1 <0>         0.1354
     62 H26         1.4467    7.7908   -6.5097 H         1 <0>         0.1333
     63 H27         4.4555    9.1671   -7.3208 H         1 <0>         0.1024
     64 H28         3.3415    7.7603   -7.4024 H         1 <0>         0.0548
     65 H29         3.1003    9.0256   -6.1503 H         1 <0>         0.0552
     66 H30         0.3580   12.2560  -11.2317 H         1 <0>         0.1027
     67 H31        -0.8908   12.0354   -9.9595 H         1 <0>         0.0561
     68 H32        -0.6507   10.7698  -11.2115 H         1 <0>         0.0557
     69 H33        -0.1969    6.5749   -2.7846 H         1 <0>         0.1121
     70 H34        -1.5648    5.6348   -2.0978 H         1 <0>         0.0941
     71 H35         1.1982    5.3623   -4.7168 H         1 <0>         0.1312
     72 H36         1.6939    3.1258   -5.6627 H         1 <0>         0.1333
     73 H37         0.0648    1.2106   -5.0609 H         1 <0>         0.1844
@<TRIPOS>BOND
     1    1    2 1
     2    1   38 1
     3    1   39 1
     4    1   40 1
     5    2    3 1
     6    2    4 1
     7    2    6 1
     8    3   41 1
     9    3   42 1
    10    3   43 1
    11    4    5 1
    12    4   44 1
    13    4   45 1
    14    6    7 2
    15    6    8 am
    16    8    9 1
    17    8   16 1
    18    9   10 1
    19    9   46 1
    20    9   47 1
    21   10   11 1
    22   10   15 1
    23   10   12 1
    24   12   13 1
    25   12   48 1
    26   12   49 1
    27   13   14 1
    28   13   50 1
    29   13   51 1
    30   14   15 1
    31   14   52 1
    32   14   53 1
    33   16   17 1
    34   16   54 1
    35   16   55 1
    36   17   18 2
    37   17   19 am
    38   19   20 1
    39   19   32 1
    40   20   21 1
    41   20   56 1
    42   20   57 1
    43   21   22 1
    44   21   58 1
    45   21   59 1
    46   22   27 ar
    47   22   23 ar
    48   23   24 ar
    49   23   60 1
    50   24   25 ar
    51   24   61 1
    52   25   26 ar
    53   25   30 1
    54   26   27 ar
    55   26   28 1
    56   27   62 1
    57   28   29 1
    58   29   63 1
    59   29   64 1
    60   29   65 1
    61   30   31 1
    62   31   66 1
    63   31   67 1
    64   31   68 1
    65   32   33 1
    66   32   69 1
    67   32   70 1
    68   33   37 1
    69   33   34 2
    70   34   35 1
    71   34   71 1
    72   35   36 2
    73   35   72 1
    74   36   37 1
    75   36   73 1
@<TRIPOS>MOLECULE
ZINC35703612
   70    72     0     0     0
SMALL
USER_CHARGES

@<TRIPOS>ATOM
      1 C1         -0.4900    1.1283    0.4384 C.3       1 <0>        -0.0949
      2 C2         -0.4073   -0.3692    0.2911 C.2       1 <0>         0.3098
      3 C3         -1.5637   -1.1075    0.1275 C.2       1 <0>        -0.3738
      4 C4         -1.4285   -2.6070   -0.0165 C.3       1 <0>         0.2718
      5 H1         -2.0092   -3.0742    0.7788 H         1 <0>         0.0756
      6 N1         -0.0528   -3.1700    0.0298 N.pl3     1 <0>        -0.5205
      7 C5          0.3055   -4.4988   -0.0802 C.2       1 <0>         0.2278
      8 C6          1.6207   -4.8012   -0.0121 C.2       1 <0>        -0.3005
      9 S1          2.3575   -3.1941    0.2094 S.3       1 <0>         0.1287
     10 C7          0.9588   -2.2664    0.1994 C.2       1 <0>         0.3414
     11 N2          0.7725   -0.9675    0.3138 N.2       1 <0>        -0.5815
     12 C8         -0.7079   -5.5475   -0.2645 C.2       1 <0>        -0.4549
     13 C9         -0.3467   -6.8448   -0.2406 C.2       1 <0>         0.4875
     14 O1          0.9637   -7.1820   -0.1630 O.3       1 <0>        -0.7003
     15 N3         -1.3140   -7.8340   -0.2953 N.pl3     1 <0>        -0.7564
     16 C10        -0.9311   -9.2414   -0.1577 C.3       1 <0>         0.1197
     17 C11        -2.1589  -10.1277   -0.3767 C.3       1 <0>        -0.0242
     18 N4         -1.7965  -11.5323   -0.1448 N.4       1 <0>        -0.3825
     19 C12        -1.4358  -11.7182    1.2670 C.3       1 <0>        -0.0542
     20 C13        -2.9393  -12.3939   -0.4758 C.3       1 <0>        -0.0447
     21 C14        -2.0476   -3.0044   -1.3318 C.ar      1 <0>        -0.0538
     22 C15        -3.2448   -3.6961   -1.3515 C.ar      1 <0>        -0.0979
     23 C16        -3.8152   -4.0621   -2.5561 C.ar      1 <0>        -0.0972
     24 C17        -3.1910   -3.7386   -3.7468 C.ar      1 <0>        -0.1987
     25 C18        -1.9915   -3.0458   -3.7341 C.ar      1 <0>         0.0972
     26 C19        -1.4201   -2.6718   -2.5212 C.ar      1 <0>         0.0933
     27 O2         -0.2455   -1.9867   -2.5037 O.3       1 <0>        -0.3162
     28 C20         0.9513   -2.7464   -2.6840 C.3       1 <0>         0.0233
     29 O3         -1.3763   -2.7269   -4.9043 O.3       1 <0>        -0.3089
     30 C21        -2.0233   -3.1378   -6.1104 C.3       1 <0>         0.0285
     31 C22        -2.8190   -0.4881    0.0965 C.2       1 <0>         0.5352
     32 O4         -2.9134    0.7087    0.3067 O.2       1 <0>        -0.5440
     33 O5         -3.9260   -1.2174   -0.1663 O.3       1 <0>        -0.3468
     34 C23        -5.1835   -0.5452   -0.0710 C.3       1 <0>         0.0713
     35 C24        -6.3168   -1.5516   -0.2793 C.3       1 <0>         0.0650
     36 O6         -6.3261   -2.4887    0.7995 O.3       1 <0>        -0.3818
     37 C25        -7.3526   -3.4780    0.7012 C.3       1 <0>         0.0318
     38 H2          0.5136    1.5382    0.5517 H         1 <0>         0.0658
     39 H3         -0.9589    1.5552   -0.4482 H         1 <0>         0.0858
     40 H4         -1.0845    1.3746    1.3181 H         1 <0>         0.0894
     41 H5          2.1008   -5.7666   -0.0749 H         1 <0>         0.2351
     42 H6         -1.7422   -5.2778   -0.4191 H         1 <0>         0.0954
     43 H7         -2.2452   -7.5951   -0.4248 H         1 <0>         0.3897
     44 H8         -0.1702   -9.4851   -0.8990 H         1 <0>         0.0746
     45 H9         -0.5326   -9.4134    0.8422 H         1 <0>         0.0668
     46 H10        -2.9462   -9.8361    0.3184 H         1 <0>         0.1299
     47 H11        -2.5151  -10.0085   -1.4000 H         1 <0>         0.1315
     48 H12        -2.3056  -11.5202    1.8934 H         1 <0>         0.1210
     49 H13        -1.1006  -12.7434    1.4244 H         1 <0>         0.1226
     50 H14        -0.6335  -11.0291    1.5309 H         1 <0>         0.1304
     51 H15        -3.2069  -12.2559   -1.5234 H         1 <0>         0.1216
     52 H16        -2.6704  -13.4361   -0.3038 H         1 <0>         0.1226
     53 H17        -3.7885  -12.1290    0.1541 H         1 <0>         0.1202
     54 H18        -3.7351   -3.9511   -0.4237 H         1 <0>         0.1259
     55 H19        -4.7504   -4.6022   -2.5673 H         1 <0>         0.1190
     56 H20        -3.6384   -4.0264   -4.6867 H         1 <0>         0.1244
     57 H21         0.9725   -3.5668   -1.9668 H         1 <0>         0.0586
     58 H22         0.9773   -3.1484   -3.6968 H         1 <0>         0.0422
     59 H23         1.8171   -2.1033   -2.5261 H         1 <0>         0.0880
     60 H24        -1.4290   -2.8212   -6.9675 H         1 <0>         0.0978
     61 H25        -2.1225   -4.2232   -6.1179 H         1 <0>         0.0509
     62 H26        -3.0120   -2.6822   -6.1657 H         1 <0>         0.0528
     63 H27        -5.2783   -0.0901    0.9150 H         1 <0>         0.0703
     64 H28        -5.2402    0.2294   -0.8357 H         1 <0>         0.0763
     65 H29        -7.2701   -1.0240   -0.3105 H         1 <0>         0.0661
     66 H30        -6.1640   -2.0815   -1.2195 H         1 <0>         0.0597
     67 H31        -8.3274   -2.9903    0.6904 H         1 <0>         0.0393
     68 H32        -7.2212   -4.0478   -0.2186 H         1 <0>         0.0395
     69 H33        -7.2922   -4.1505    1.5569 H         1 <0>         0.0838
     70 H34        -1.0104  -11.7775   -0.7279 H         1 <0>         0.4287
@<TRIPOS>BOND
     1    1    2 1
     2    1   38 1
     3    1   39 1
     4    1   40 1
     5    2   11 1
     6    2    3 2
     7    3    4 1
     8    3   31 1
     9    4    5 1
    10    4    6 1
    11    4   21 1
    12    6   10 1
    13    6    7 1
    14    7    8 2
    15    7   12 1
    16    8    9 1
    17    8   41 1
    18    9   10 1
    19   10   11 2
    20   12   13 2
    21   12   42 1
    22   13   14 1
    23   13   15 1
    24   15   16 1
    25   15   43 1
    26   16   17 1
    27   16   44 1
    28   16   45 1
    29   17   18 1
    30   17   46 1
    31   17   47 1
    32   18   19 1
    33   18   20 1
    34   18   70 1
    35   19   48 1
    36   19   49 1
    37   19   50 1
    38   20   51 1
    39   20   52 1
    40   20   53 1
    41   21   26 ar
    42   21   22 ar
    43   22   23 ar
    44   22   54 1
    45   23   24 ar
    46   23   55 1
    47   24   25 ar
    48   24   56 1
    49   25   26 ar
    50   25   29 1
    51   26   27 1
    52   27   28 1
    53   28   57 1
    54   28   58 1
    55   28   59 1
    56   29   30 1
    57   30   60 1
    58   30   61 1
    59   30   62 1
    60   31   32 2
    61   31   33 1
    62   33   34 1
    63   34   35 1
    64   34   63 1
    65   34   64 1
    66   35   36 1
    67   35   65 1
    68   35   66 1
    69   36   37 1
    70   37   67 1
    71   37   68 1
    72   37   69 1
@<TRIPOS>MOLECULE
ZINC40019663
   76    79     0     0     0
SMALL
USER_CHARGES

@<TRIPOS>ATOM
      1 C1         -0.3507    0.9977    0.9178 C.3       1 <0>        -0.1573
      2 C2         -0.3777   -0.5056    0.6346 C.3       1 <0>        -0.1218
      3 C3          0.3380   -0.7884   -0.6878 C.3       1 <0>        -0.1470
      4 C4          0.3111   -2.2917   -0.9709 C.3       1 <0>        -0.0169
      5 N1          0.8781   -2.5496   -2.3013 N.4       1 <0>        -0.3849
      6 C5          2.3034   -2.1939   -2.3035 C.3       1 <0>        -0.0126
      7 C6          2.8598   -2.3257   -3.7226 C.3       1 <0>        -0.1509
      8 C7          4.3047   -1.8235   -3.7526 C.3       1 <0>        -0.1192
      9 C8          4.8611   -1.9552   -5.1717 C.3       1 <0>        -0.1589
     10 C9          0.7283   -3.9736   -2.6298 C.3       1 <0>        -0.0098
     11 C10        -0.7581   -4.3156   -2.7501 C.3       1 <0>        -0.1714
     12 C11        -0.9141   -5.7987   -3.0922 C.3       1 <0>         0.1424
     13 N2         -2.3373   -6.1262   -3.2074 N.am      1 <0>        -0.6160
     14 C12        -3.2108   -6.5770   -2.1176 C.3       1 <0>         0.2682
     15 H1         -3.2606   -5.8166   -1.3382 H         1 <0>         0.0709
     16 C13        -4.5764   -6.7832   -2.7302 C.2       1 <0>        -0.4987
     17 C14        -4.4664   -6.4734   -4.0430 C.2       1 <0>         0.2608
     18 C15        -3.0764   -6.0614   -4.3298 C.2       1 <0>         0.5157
     19 O1         -2.6616   -5.7178   -5.4189 O.2       1 <0>        -0.5286
     20 O2         -5.4707   -6.5272   -4.9480 O.3       1 <0>        -0.6413
     21 C16        -5.7874   -7.2328   -2.0363 C.2       1 <0>         0.5035
     22 O3         -6.2827   -8.3097   -2.3124 O.2       1 <0>        -0.4633
     23 C17        -6.4058   -6.3793   -1.0029 C.ar      1 <0>        -0.1337
     24 C18        -5.9157   -5.0903   -0.7727 C.ar      1 <0>        -0.0621
     25 C19        -6.4941   -4.2970    0.1925 C.ar      1 <0>        -0.1321
     26 C20        -7.5659   -4.7720    0.9406 C.ar      1 <0>         0.0648
     27 C21        -8.0606   -6.0547    0.7145 C.ar      1 <0>         0.0367
     28 C22        -7.4867   -6.8550   -0.2555 C.ar      1 <0>        -0.0640
     29 O4         -9.1141   -6.5311    1.4332 O.3       1 <0>        -0.3055
     30 C23        -9.4298   -5.8404    2.6469 C.3       1 <0>         0.0204
     31 C24        -9.4228   -4.3333    2.3576 C.3       1 <0>         0.0198
     32 O5         -8.1186   -3.9722    1.8909 O.3       1 <0>        -0.3082
     33 C25        -2.6976   -7.8729   -1.5444 C.ar      1 <0>        -0.0614
     34 C26        -2.1320   -8.8207   -2.3775 C.ar      1 <0>        -0.1049
     35 C27        -1.6602  -10.0104   -1.8548 C.ar      1 <0>        -0.1025
     36 C28        -1.7532  -10.2554   -0.4982 C.ar      1 <0>        -0.1513
     37 C29        -2.3201   -9.3062    0.3395 C.ar      1 <0>         0.1026
     38 C30        -2.7873   -8.1104   -0.1867 C.ar      1 <0>        -0.1405
     39 O6         -2.4127   -9.5448    1.6742 O.3       1 <0>        -0.4973
     40 H2          0.6832    1.3364    0.9846 H         1 <0>         0.0569
     41 H3         -0.8555    1.5286    0.1107 H         1 <0>         0.0589
     42 H4         -0.8606    1.1992    1.8599 H         1 <0>         0.0655
     43 H5          0.1271   -1.0365    1.4417 H         1 <0>         0.0724
     44 H6         -1.4116   -0.8443    0.5679 H         1 <0>         0.0755
     45 H7         -0.1668   -0.2575   -1.4949 H         1 <0>         0.0852
     46 H8          1.3719   -0.4497   -0.6210 H         1 <0>         0.0845
     47 H9          0.9004   -2.8140   -0.2173 H         1 <0>         0.1293
     48 H10        -0.7182   -2.6490   -0.9392 H         1 <0>         0.1354
     49 H11         2.4218   -1.1660   -1.9608 H         1 <0>         0.1298
     50 H12         2.8461   -2.8640   -1.6367 H         1 <0>         0.1286
     51 H13         2.8323   -3.3716   -4.0280 H         1 <0>         0.0890
     52 H14         2.2543   -1.7313   -4.4069 H         1 <0>         0.0861
     53 H15         4.3322   -0.7775   -3.4472 H         1 <0>         0.0709
     54 H16         4.9102   -2.4178   -3.0683 H         1 <0>         0.0720
     55 H17         4.8336   -3.0012   -5.4771 H         1 <0>         0.0599
     56 H18         4.2556   -1.3609   -5.8560 H         1 <0>         0.0593
     57 H19         5.8905   -1.5974   -5.1931 H         1 <0>         0.0645
     58 H20         1.2270   -4.1826   -3.5762 H         1 <0>         0.1337
     59 H21         1.1775   -4.5775   -1.8413 H         1 <0>         0.1309
     60 H22        -1.2567   -4.1067   -1.8037 H         1 <0>         0.0905
     61 H23        -1.2072   -3.7117   -3.5385 H         1 <0>         0.0926
     62 H24        -0.4154   -6.0077   -4.0386 H         1 <0>         0.0870
     63 H25        -0.4649   -6.4027   -2.3038 H         1 <0>         0.0851
     64 H26        -5.0836   -4.7173   -1.3514 H         1 <0>         0.1395
     65 H27        -6.1136   -3.3019    0.3696 H         1 <0>         0.1331
     66 H28        -7.8706   -7.8488   -0.4329 H         1 <0>         0.1428
     67 H29       -10.4170   -6.1431    2.9961 H         1 <0>         0.1217
     68 H30        -8.6834   -6.0724    3.4067 H         1 <0>         0.0764
     69 H31       -10.1639   -4.1025    1.5923 H         1 <0>         0.0785
     70 H32        -9.6522   -3.7828    3.2700 H         1 <0>         0.1215
     71 H33        -2.0590   -8.6314   -3.4383 H         1 <0>         0.1196
     72 H34        -1.2190  -10.7492   -2.5075 H         1 <0>         0.1239
     73 H35        -1.3852  -11.1853   -0.0905 H         1 <0>         0.1242
     74 H36        -3.2248   -7.3678    0.4641 H         1 <0>         0.1249
     75 H37        -1.6453   -9.2462    2.1813 H         1 <0>         0.3837
     76 H38         0.3915   -1.9931   -2.9880 H         1 <0>         0.4232
@<TRIPOS>BOND
     1    1    2 1
     2    1   40 1
     3    1   41 1
     4    1   42 1
     5    2    3 1
     6    2   43 1
     7    2   44 1
     8    3    4 1
     9    3   45 1
    10    3   46 1
    11    4    5 1
    12    4   47 1
    13    4   48 1
    14    5    6 1
    15    5   10 1
    16    5   76 1
    17    6    7 1
    18    6   49 1
    19    6   50 1
    20    7    8 1
    21    7   51 1
    22    7   52 1
    23    8    9 1
    24    8   53 1
    25    8   54 1
    26    9   55 1
    27    9   56 1
    28    9   57 1
    29   10   11 1
    30   10   58 1
    31   10   59 1
    32   11   12 1
    33   11   60 1
    34   11   61 1
    35   12   13 1
    36   12   62 1
    37   12   63 1
    38   13   18 am
    39   13   14 1
    40   14   15 1
    41   14   16 1
    42   14   33 1
    43   16   17 2
    44   16   21 1
    45   17   18 1
    46   17   20 1
    47   18   19 2
    48   21   22 2
    49   21   23 1
    50   23   28 ar
    51   23   24 ar
    52   24   25 ar
    53   24   64 1
    54   25   26 ar
    55   25   65 1
    56   26   32 1
    57   26   27 ar
    58   27   28 ar
    59   27   29 1
    60   28   66 1
    61   29   30 1
    62   30   31 1
    63   30   67 1
    64   30   68 1
    65   31   32 1
    66   31   69 1
    67   31   70 1
    68   33   38 ar
    69   33   34 ar
    70   34   35 ar
    71   34   71 1
    72   35   36 ar
    73   35   72 1
    74   36   37 ar
    75   36   73 1
    76   37   38 ar
    77   37   39 1
    78   38   74 1
    79   39   75 1
@<TRIPOS>MOLECULE
ZINC39944691
   60    61     0     0     0
SMALL
USER_CHARGES

@<TRIPOS>ATOM
      1 C1         -0.0187    1.5258    0.0104 C.3       1 <0>        -0.1530
      2 C2          0.0021   -0.0041    0.0020 C.3       1 <0>         0.0607
      3 O1         -1.3386   -0.4987    0.0122 O.3       1 <0>        -0.3447
      4 C3         -1.4971   -1.8376    0.0065 C.2       1 <0>         0.5324
      5 O2         -0.5234   -2.5647   -0.0067 O.2       1 <0>        -0.4895
      6 C4         -2.8469   -2.4176    0.0163 C.2       1 <0>        -0.1797
      7 C5         -3.1685   -3.7268    0.0182 C.2       1 <0>        -0.0199
      8 C6         -4.6324   -3.8626    0.0289 C.2       1 <0>         0.0925
      9 N1         -5.2055   -2.6993    0.0336 N.2       1 <0>        -0.3791
     10 C7         -4.1607   -1.6682    0.0328 C.3       1 <0>         0.0568
     11 H1         -4.2502   -1.0454   -0.8572 H         1 <0>         0.1464
     12 C8         -4.2623   -0.8075    1.2937 C.3       1 <0>        -0.1226
     13 C9         -5.3564   -5.1563    0.0331 C.2       1 <0>         0.4245
     14 O3         -4.7385   -6.1944    0.0275 O.2       1 <0>        -0.3914
     15 C10        -6.8632   -5.1764    0.0443 C.3       1 <0>         0.0534
     16 H2         -7.2321   -4.3947    0.7083 H         1 <0>         0.1236
     17 C11        -7.3871   -4.9314   -1.3722 C.3       1 <0>        -0.1635
     18 O4         -7.3192   -6.4491    0.5073 O.3       1 <0>        -0.3309
     19 C12        -8.4938   -6.4764    1.1563 C.2       1 <0>         0.4683
     20 O5         -9.1143   -5.4536    1.3258 O.2       1 <0>        -0.4961
     21 C13        -9.0387   -7.7827    1.6737 C.3       1 <0>        -0.1217
     22 C14       -10.3795   -7.5367    2.3683 C.3       1 <0>         0.1233
     23 N2        -10.9092   -8.8067    2.8713 N.pl3     1 <0>        -1.1166
     24 S1        -12.1425   -8.8098    3.9764 S.o2      1 <0>         2.6991
     25 O6        -12.4460  -10.1723    4.2424 O.2       1 <0>        -0.9462
     26 O7        -11.7719   -7.8978    5.0011 O.2       1 <0>        -0.9439
     27 C15       -13.5572   -8.1249    3.1802 C.ar      1 <0>        -0.6832
     28 C16       -13.7852   -6.7621    3.2277 C.ar      1 <0>         0.0104
     29 C17       -14.8949   -6.2248    2.6032 C.ar      1 <0>        -0.1356
     30 C18       -15.7769   -7.0502    1.9305 C.ar      1 <0>        -0.0159
     31 C19       -15.5485   -8.4125    1.8821 C.ar      1 <0>        -0.2036
     32 C20       -14.4361   -8.9494    2.5033 C.ar      1 <0>         0.0316
     33 C21       -16.5100   -9.3121    1.1493 C.3       1 <0>         0.5103
     34 F1        -17.5451   -8.5440    0.6054 F         1 <0>        -0.1740
     35 F2        -15.8341   -9.9784    0.1214 F         1 <0>        -0.1731
     36 F3        -17.0435  -10.2492    2.0406 F         1 <0>        -0.1714
     37 C22        -2.1848   -4.8685    0.0101 C.3       1 <0>        -0.1228
     38 H3          1.0039    1.9031    0.0027 H         1 <0>         0.0825
     39 H4         -0.5459    1.8868   -0.8726 H         1 <0>         0.0679
     40 H5         -0.5289    1.8773    0.9072 H         1 <0>         0.0680
     41 H6          0.5123   -0.3556   -0.8948 H         1 <0>         0.0707
     42 H7          0.5293   -0.3651    0.8851 H         1 <0>         0.0709
     43 H8         -3.4421   -0.0898    1.3107 H         1 <0>         0.0847
     44 H9         -5.2125   -0.2734    1.2934 H         1 <0>         0.0794
     45 H10        -4.2047   -1.4461    2.1751 H         1 <0>         0.0621
     46 H11        -7.0393   -3.9606   -1.7254 H         1 <0>         0.0869
     47 H12        -7.0182   -5.7131   -2.0363 H         1 <0>         0.0737
     48 H13        -8.4770   -4.9459   -1.3641 H         1 <0>         0.0808
     49 H14        -9.1817   -8.4719    0.8414 H         1 <0>         0.1206
     50 H15        -8.3345   -8.2137    2.3854 H         1 <0>         0.1222
     51 H16       -10.2365   -6.8476    3.2006 H         1 <0>         0.0959
     52 H17       -11.0837   -7.1058    1.6566 H         1 <0>         0.0800
     53 H18       -10.5375   -9.6457    2.5569 H         1 <0>         0.4237
     54 H19       -13.0963   -6.1174    3.7532 H         1 <0>         0.1530
     55 H20       -15.0734   -5.1604    2.6409 H         1 <0>         0.1494
     56 H21       -16.6444   -6.6305    1.4430 H         1 <0>         0.1494
     57 H22       -14.2556  -10.0134    2.4623 H         1 <0>         0.1526
     58 H23        -1.9397   -5.1441    1.0358 H         1 <0>         0.0888
     59 H24        -2.6258   -5.7244   -0.5007 H         1 <0>         0.0890
     60 H25        -1.2774   -4.5625   -0.5106 H         1 <0>         0.0926
@<TRIPOS>BOND
     1    1    2 1
     2    1   38 1
     3    1   39 1
     4    1   40 1
     5    2    3 1
     6    2   41 1
     7    2   42 1
     8    3    4 1
     9    4    5 2
    10    4    6 1
    11    6   10 1
    12    6    7 2
    13    7    8 1
    14    7   37 1
    15    8    9 2
    16    8   13 1
    17    9   10 1
    18   10   11 1
    19   10   12 1
    20   12   43 1
    21   12   44 1
    22   12   45 1
    23   13   14 2
    24   13   15 1
    25   15   16 1
    26   15   17 1
    27   15   18 1
    28   17   46 1
    29   17   47 1
    30   17   48 1
    31   18   19 1
    32   19   20 2
    33   19   21 1
    34   21   22 1
    35   21   49 1
    36   21   50 1
    37   22   23 1
    38   22   51 1
    39   22   52 1
    40   23   24 1
    41   23   53 1
    42   24   25 2
    43   24   26 2
    44   24   27 1
    45   27   32 ar
    46   27   28 ar
    47   28   29 ar
    48   28   54 1
    49   29   30 ar
    50   29   55 1
    51   30   31 ar
    52   30   56 1
    53   31   32 ar
    54   31   33 1
    55   32   57 1
    56   33   34 1
    57   33   35 1
    58   33   36 1
    59   37   58 1
    60   37   59 1
    61   37   60 1
@<TRIPOS>MOLECULE
ZINC08943981
   66    68     0     0     0
SMALL
USER_CHARGES
4-(diethylsulfamoyl)-N-[2-[5-(2-methoxyethylamino)-3-methylsulfanyl-2,4,8,9-tetrazabicyclo[4.3.0]nona-1,3,5,7-tetraen-9-yl]ethyl]benzamide
@<TRIPOS>ATOM
      1 C1         -7.6403   12.5841   -0.7891 C.3       1 <0>        -0.1757
      2 C2         -7.2099   11.1693   -1.1814 C.3       1 <0>         0.1192
      3 N1         -6.4955   11.2129   -2.4596 N.pl3     1 <0>        -0.9944
      4 C3         -7.2441   11.1830   -3.7186 C.3       1 <0>         0.1074
      5 C4         -7.5405    9.7316   -4.1013 C.3       1 <0>        -0.1787
      6 S1         -4.8417   11.2961   -2.4815 S.o2      1 <0>         2.6866
      7 O1         -4.4470   11.8599   -1.2383 O.2       1 <0>        -0.9480
      8 O2         -4.4806   11.8734   -3.7287 O.2       1 <0>        -0.9497
      9 C5         -4.2370    9.6412   -2.4986 C.ar      1 <0>        -0.6560
     10 C6         -4.0168    9.0009   -3.7051 C.ar      1 <0>        -0.0251
     11 C7         -3.5426    7.7055   -3.7255 C.ar      1 <0>        -0.0786
     12 C8         -3.2854    7.0408   -2.5255 C.ar      1 <0>        -0.0780
     13 C9         -3.5151    7.6906   -1.3117 C.ar      1 <0>        -0.1074
     14 C10        -3.9840    8.9880   -1.3054 C.ar      1 <0>        -0.0263
     15 C11        -2.7775    5.6524   -2.5398 C.2       1 <0>         0.5575
     16 O3         -2.5831    5.0873   -3.5983 O.2       1 <0>        -0.5195
     17 N2         -2.5301    5.0133   -1.3793 N.am      1 <0>        -0.7206
     18 C12        -2.0269    3.6375   -1.3935 C.3       1 <0>         0.1046
     19 C13        -1.8320    3.1509    0.0439 C.3       1 <0>         0.1341
     20 N3         -1.3288    1.7751    0.0297 N.pl3     1 <0>        -0.3776
     21 C14        -0.0170    1.4043    0.0098 C.ar      1 <0>         0.3865
     22 C15         0.0021   -0.0041    0.0020 C.ar      1 <0>        -0.3389
     23 C16        -1.3421   -0.4356    0.0125 C.2       1 <0>         0.1146
     24 N4         -2.1126    0.6144    0.0255 N.2       1 <0>        -0.2514
     25 C17         1.2505   -0.6575   -0.0127 C.ar      1 <0>         0.5322
     26 N5          2.3525    0.0822   -0.0186 N.ar      1 <0>        -0.6094
     27 C18         2.2890    1.4092   -0.0109 C.ar      1 <0>         0.3878
     28 N6          1.1397    2.0642    0.0023 N.ar      1 <0>        -0.5590
     29 S2          3.7908    2.3306   -0.0194 S.3       1 <0>         0.0189
     30 C19         4.9908    0.9757   -0.0375 C.3       1 <0>        -0.1448
     31 N7          1.3256   -2.0363   -0.0204 N.pl3     1 <0>        -0.6883
     32 C20         2.6323   -2.6986   -0.0357 C.3       1 <0>         0.1292
     33 C21         2.4350   -4.2159   -0.0415 C.3       1 <0>         0.0440
     34 O4          1.7978   -4.6087   -1.2588 O.3       1 <0>        -0.3900
     35 C22         1.5659   -6.0146   -1.3660 C.3       1 <0>         0.0301
     36 H1         -8.1718   12.5516    0.1620 H         1 <0>         0.0705
     37 H2         -6.7589   13.2180   -0.6913 H         1 <0>         0.0643
     38 H3         -8.2967   12.9907   -1.5585 H         1 <0>         0.0606
     39 H4         -8.0912   10.5354   -1.2792 H         1 <0>         0.0821
     40 H5         -6.5535   10.7627   -0.4120 H         1 <0>         0.0813
     41 H6         -8.1817   11.7253   -3.5968 H         1 <0>         0.0878
     42 H7         -6.6523   11.6524   -4.5044 H         1 <0>         0.0952
     43 H8         -6.6029    9.1892   -4.2231 H         1 <0>         0.0555
     44 H9         -8.1323    9.2622   -3.3154 H         1 <0>         0.0618
     45 H10        -8.0975    9.7093   -5.0380 H         1 <0>         0.0726
     46 H11        -4.2163    9.5163   -4.6330 H         1 <0>         0.1489
     47 H12        -3.3705    7.2070   -4.6680 H         1 <0>         0.1485
     48 H13        -3.3223    7.1803   -0.3797 H         1 <0>         0.1371
     49 H14        -4.1580    9.4935   -0.3670 H         1 <0>         0.1478
     50 H15        -2.6852    5.4643   -0.5346 H         1 <0>         0.4031
     51 H16        -1.0734    3.6048   -1.9206 H         1 <0>         0.0794
     52 H17        -2.7449    2.9933   -1.9010 H         1 <0>         0.0809
     53 H18        -2.7855    3.1836    0.5710 H         1 <0>         0.1052
     54 H19        -1.1140    3.7951    0.5514 H         1 <0>         0.1062
     55 H20        -1.6752   -1.4629    0.0102 H         1 <0>         0.1952
     56 H21         6.0010    1.3851   -0.0444 H         1 <0>         0.1067
     57 H22         4.8550    0.3582    0.8504 H         1 <0>         0.0909
     58 H23         4.8390    0.3678   -0.9294 H         1 <0>         0.0915
     59 H24         0.5133   -2.5664   -0.0156 H         1 <0>         0.4167
     60 H25         3.1805   -2.4001   -0.9292 H         1 <0>         0.0812
     61 H26         3.1968   -2.4091    0.8507 H         1 <0>         0.0874
     62 H27         3.4041   -4.7086    0.0367 H         1 <0>         0.0714
     63 H28         1.8114   -4.5044    0.8046 H         1 <0>         0.0586
     64 H29         0.9242   -6.3405   -0.5474 H         1 <0>         0.0434
     65 H30         1.0796   -6.2311   -2.3172 H         1 <0>         0.0889
     66 H31         2.5170   -6.5447   -1.3153 H         1 <0>         0.0441
@<TRIPOS>BOND
     1    1    2 1
     2    1   36 1
     3    1   37 1
     4    1   38 1
     5    2    3 1
     6    2   39 1
     7    2   40 1
     8    3    4 1
     9    3    6 1
    10    4    5 1
    11    4   41 1
    12    4   42 1
    13    5   43 1
    14    5   44 1
    15    5   45 1
    16    6    7 2
    17    6    8 2
    18    6    9 1
    19    9   14 ar
    20    9   10 ar
    21   10   11 ar
    22   10   46 1
    23   11   12 ar
    24   11   47 1
    25   12   13 ar
    26   12   15 1
    27   13   14 ar
    28   13   48 1
    29   14   49 1
    30   15   16 2
    31   15   17 am
    32   17   18 1
    33   17   50 1
    34   18   19 1
    35   18   51 1
    36   18   52 1
    37   19   20 1
    38   19   53 1
    39   19   54 1
    40   20   24 1
    41   20   21 1
    42   21   28 ar
    43   21   22 ar
    44   22   23 1
    45   22   25 ar
    46   23   24 2
    47   23   55 1
    48   25   26 ar
    49   25   31 1
    50   26   27 ar
    51   27   28 ar
    52   27   29 1
    53   29   30 1
    54   30   56 1
    55   30   57 1
    56   30   58 1
    57   31   32 1
    58   31   59 1
    59   32   33 1
    60   32   60 1
    61   32   61 1
    62   33   34 1
    63   33   62 1
    64   33   63 1
    65   34   35 1
    66   35   64 1
    67   35   65 1
    68   35   66 1
@<TRIPOS>MOLECULE
ZINC15775197
   63    64     0     0     0
SMALL
USER_CHARGES
[(2S,3R,4R)-2,3,4-triacetoxy-4-[5-(acetyl-(p-tolyl)amino)-1,3,4-thiadiazol-2-yl]butyl] acetate
@<TRIPOS>ATOM
      1 C1        -10.4799    5.6146    2.1178 C.3       1 <0>        -0.1205
      2 C2         -9.0880    5.5431    1.5445 C.ar      1 <0>        -0.0660
      3 C3         -8.7049    4.4440    0.7981 C.ar      1 <0>        -0.1052
      4 C4         -7.4300    4.3755    0.2713 C.ar      1 <0>        -0.0807
      5 C5         -6.5326    5.4119    0.4920 C.ar      1 <0>         0.1003
      6 C6         -6.9185    6.5117    1.2469 C.ar      1 <0>        -0.1023
      7 C7         -8.1965    6.5767    1.7665 C.ar      1 <0>        -0.1084
      8 N1         -5.2390    5.3455   -0.0408 N.am      1 <0>        -0.4504
      9 C8         -4.3699    4.3367    0.3652 C.2       1 <0>         0.2826
     10 N2         -4.5825    3.2955    1.1578 N.2       1 <0>        -0.2969
     11 N3         -3.6724    2.4630    1.4213 N.2       1 <0>        -0.1836
     12 C9         -2.4518    2.5807    0.9371 C.2       1 <0>        -0.0254
     13 S1         -2.6439    4.0736   -0.0325 S.3       1 <0>         0.1077
     14 C10        -1.2419    1.7049    1.1372 C.3       1 <0>         0.2092
     15 H1         -0.5190    1.8972    0.3444 H         1 <0>         0.1282
     16 C11        -0.6060    2.0158    2.4936 C.3       1 <0>         0.0792
     17 H2         -0.4002    3.0840    2.5622 H         1 <0>         0.1233
     18 C12        -1.5667    1.6087    3.6126 C.3       1 <0>         0.0730
     19 H3         -2.5131    2.1351    3.4884 H         1 <0>         0.1301
     20 C13        -0.9551    1.9718    4.9672 C.3       1 <0>         0.0626
     21 O1         -1.9144    1.6947    6.0214 O.3       1 <0>        -0.3525
     22 C14        -1.5306    1.9602    7.2799 C.2       1 <0>         0.4582
     23 O2         -0.4294    2.4093    7.4936 O.2       1 <0>        -0.5084
     24 C15        -2.4730    1.6982    8.4263 C.3       1 <0>        -0.1463
     25 O3         -1.7983    0.1764    3.5545 O.3       1 <0>        -0.3328
     26 C16        -3.0760   -0.2332    3.5169 C.2       1 <0>         0.4549
     27 O4         -3.9684    0.5776    3.4393 O.2       1 <0>        -0.4736
     28 C17        -3.3975   -1.7045    3.5716 C.3       1 <0>        -0.1439
     29 O5          0.6351    1.2742    2.6277 O.3       1 <0>        -0.3259
     30 C18         1.5987    1.8296    3.3793 C.2       1 <0>         0.4582
     31 O6          1.4112    2.8999    3.9077 O.2       1 <0>        -0.5067
     32 C19         2.9143    1.1182    3.5641 C.3       1 <0>        -0.1451
     33 O7         -1.6426    0.3098    1.0989 O.3       1 <0>        -0.3262
     34 C20        -0.7342   -0.5732    0.6552 C.2       1 <0>         0.4662
     35 O8          0.3486   -0.1894    0.2807 O.2       1 <0>        -0.4966
     36 C21        -1.0647   -2.0432    0.6241 C.3       1 <0>        -0.1439
     37 C22        -4.8356    6.2583   -0.9466 C.2       1 <0>         0.5178
     38 O9         -3.7443    6.1561   -1.4659 O.2       1 <0>        -0.4909
     39 C23        -5.7404    7.4060   -1.3142 C.3       1 <0>        -0.1661
     40 H4        -10.4873    5.1656    3.1110 H         1 <0>         0.0768
     41 H5        -10.7909    6.6570    2.1880 H         1 <0>         0.0708
     42 H6        -11.1683    5.0730    1.4691 H         1 <0>         0.0710
     43 H7         -9.4035    3.6384    0.6264 H         1 <0>         0.1340
     44 H8         -7.1315    3.5169   -0.3119 H         1 <0>         0.1286
     45 H9         -6.2212    7.3172    1.4243 H         1 <0>         0.1302
     46 H10        -8.4987    7.4338    2.3499 H         1 <0>         0.1347
     47 H11        -0.0550    1.3790    5.1301 H         1 <0>         0.0762
     48 H12        -0.6993    3.0313    4.9781 H         1 <0>         0.0968
     49 H13        -2.3282    0.6811    8.7904 H         1 <0>         0.1060
     50 H14        -2.2710    2.4046    9.2314 H         1 <0>         0.1046
     51 H15        -3.5015    1.8194    8.0861 H         1 <0>         0.0948
     52 H16        -2.4711   -2.2777    3.6097 H         1 <0>         0.0856
     53 H17        -3.9912   -1.9139    4.4615 H         1 <0>         0.1020
     54 H18        -3.9627   -1.9862    2.6832 H         1 <0>         0.1026
     55 H19         2.8976    0.1756    3.0170 H         1 <0>         0.0949
     56 H20         3.7222    1.7440    3.1851 H         1 <0>         0.1095
     57 H21         3.0746    0.9203    4.6239 H         1 <0>         0.1078
     58 H22        -2.0798   -2.1952    0.9911 H         1 <0>         0.0889
     59 H23        -0.9896   -2.4109   -0.3993 H         1 <0>         0.1065
     60 H24        -0.3640   -2.5867    1.2578 H         1 <0>         0.1099
     61 H25        -5.5102    8.2660   -0.6853 H         1 <0>         0.1101
     62 H26        -5.5864    7.6694   -2.3606 H         1 <0>         0.1092
     63 H27        -6.7792    7.1127   -1.1624 H         1 <0>         0.0951
@<TRIPOS>BOND
     1    1    2 1
     2    1   40 1
     3    1   41 1
     4    1   42 1
     5    2    7 ar
     6    2    3 ar
     7    3    4 ar
     8    3   43 1
     9    4    5 ar
    10    4   44 1
    11    5    6 ar
    12    5    8 1
    13    6    7 ar
    14    6   45 1
    15    7   46 1
    16    8    9 1
    17    8   37 am
    18    9   13 1
    19    9   10 2
    20   10   11 1
    21   11   12 2
    22   12   13 1
    23   12   14 1
    24   14   15 1
    25   14   16 1
    26   14   33 1
    27   16   17 1
    28   16   18 1
    29   16   29 1
    30   18   19 1
    31   18   20 1
    32   18   25 1
    33   20   21 1
    34   20   47 1
    35   20   48 1
    36   21   22 1
    37   22   23 2
    38   22   24 1
    39   24   49 1
    40   24   50 1
    41   24   51 1
    42   25   26 1
    43   26   27 2
    44   26   28 1
    45   28   52 1
    46   28   53 1
    47   28   54 1
    48   29   30 1
    49   30   31 2
    50   30   32 1
    51   32   55 1
    52   32   56 1
    53   32   57 1
    54   33   34 1
    55   34   35 2
    56   34   36 1
    57   36   58 1
    58   36   59 1
    59   36   60 1
    60   37   38 2
    61   37   39 1
    62   39   61 1
    63   39   62 1
    64   39   63 1
@<TRIPOS>MOLECULE
ZINC27074428
   88    89     0     0     0
SMALL
USER_CHARGES
1-[2-[2-[2-[2-[3-(3,5-ditert-butyl-4-hydroxy-phenyl)propoxy]ethoxy]ethoxy]ethoxy]ethyl]-3-hydroxy-2-methyl-pyridin-4-one
@<TRIPOS>ATOM
      1 C1         -2.1269   -7.5036   -6.1096 C.3       1 <0>        -0.1149
      2 C2         -2.8119   -7.8742   -7.3997 C.2       1 <0>         0.0884
      3 C3         -2.1800   -8.6779   -8.2880 C.2       1 <0>        -0.0083
      4 C4         -2.8348   -9.0196   -9.4984 C.2       1 <0>         0.3626
      5 O1         -2.2897   -9.7430  -10.3201 O.2       1 <0>        -0.5332
      6 C5         -4.1297   -8.5069   -9.7359 C.2       1 <0>        -0.3000
      7 C6         -4.7088   -7.7143   -8.8064 C.2       1 <0>         0.1455
      8 N1         -4.0578   -7.3995   -7.6609 N.pl3     1 <0>        -0.4542
      9 C7         -4.7143   -6.5327   -6.6791 C.3       1 <0>         0.0927
     10 C8         -4.2692   -5.0854   -6.8983 C.3       1 <0>         0.0420
     11 O2         -4.9095   -4.2398   -5.9407 O.3       1 <0>        -0.3749
     12 C9         -4.5603   -2.8592   -6.0588 C.3       1 <0>         0.0654
     13 C10        -5.3001   -2.0527   -4.9897 C.3       1 <0>         0.0618
     14 O3         -4.8446   -2.4483   -3.6943 O.3       1 <0>        -0.3719
     15 C11        -5.4760   -1.7516   -2.6183 C.3       1 <0>         0.0629
     16 C12        -4.9143   -2.2532   -1.2865 C.3       1 <0>         0.0625
     17 O4         -3.5292   -1.9136   -1.1956 O.3       1 <0>        -0.3711
     18 C13        -2.9048   -2.3392    0.0172 C.3       1 <0>         0.0624
     19 C14        -1.4321   -1.9246    0.0054 C.3       1 <0>         0.0634
     20 O5         -1.3386   -0.4987    0.0122 O.3       1 <0>        -0.3801
     21 C15         0.0021   -0.0041    0.0020 C.3       1 <0>         0.0602
     22 C16        -0.0187    1.5258    0.0104 C.3       1 <0>        -0.1113
     23 C17         1.4167    2.0553   -0.0004 C.3       1 <0>        -0.0717
     24 C18         1.3963    3.5622    0.0079 C.ar      1 <0>        -0.1206
     25 C19         1.3812    4.2588   -1.1864 C.ar      1 <0>        -0.0821
     26 C20         1.3567    5.6400   -1.1815 C.ar      1 <0>        -0.1074
     27 C21         1.3588    6.3283    0.0231 C.ar      1 <0>         0.1697
     28 C22         1.3796    5.6271    1.2200 C.ar      1 <0>        -0.1630
     29 C23         1.3984    4.2458    1.2097 C.ar      1 <0>        -0.0809
     30 C24         1.3824    6.3716    2.5302 C.3       1 <0>        -0.0279
     31 C25         1.4075    5.3696    3.6861 C.3       1 <0>        -0.1425
     32 C26         2.6204    7.2676    2.6051 C.3       1 <0>        -0.1541
     33 C27         0.1223    7.2336    2.6297 C.3       1 <0>        -0.1542
     34 O6          1.3399    7.6872    0.0305 O.3       1 <0>        -0.5090
     35 C28         1.3341    6.3985   -2.4835 C.3       1 <0>        -0.0139
     36 C29         1.3365    5.4089   -3.6503 C.3       1 <0>        -0.1473
     37 C30         0.0723    7.2614   -2.5491 C.3       1 <0>        -0.1413
     38 C31         2.5704    7.2954   -2.5728 C.3       1 <0>        -0.1413
     39 O7         -0.9319   -9.1513   -8.0225 O.3       1 <0>        -0.4980
     40 H1         -1.1342   -7.9761   -6.0727 H         1 <0>         0.0973
     41 H2         -2.7314   -7.8535   -5.2598 H         1 <0>         0.0783
     42 H3         -2.0151   -6.4107   -6.0547 H         1 <0>         0.0766
     43 H4         -4.6537   -8.7500  -10.6485 H         1 <0>         0.1513
     44 H5         -5.7005   -7.3239   -8.9810 H         1 <0>         0.1667
     45 H6         -5.8054   -6.6030   -6.7995 H         1 <0>         0.1094
     46 H7         -4.4361   -6.8521   -5.6639 H         1 <0>         0.1088
     47 H8         -3.1781   -5.0151   -6.7779 H         1 <0>         0.0608
     48 H9         -4.5474   -4.7660   -7.9135 H         1 <0>         0.0584
     49 H10        -3.4753   -2.7424   -5.9208 H         1 <0>         0.0629
     50 H11        -4.8446   -2.4931   -7.0564 H         1 <0>         0.0682
     51 H12        -5.1019   -0.9807   -5.1365 H         1 <0>         0.0683
     52 H13        -6.3809   -2.2402   -5.0714 H         1 <0>         0.0591
     53 H14        -5.2815   -0.6733   -2.7154 H         1 <0>         0.0594
     54 H15        -6.5605   -1.9328   -2.6504 H         1 <0>         0.0656
     55 H16        -5.4624   -1.7827   -0.4569 H         1 <0>         0.0654
     56 H17        -5.0286   -3.3457   -1.2285 H         1 <0>         0.0583
     57 H18        -3.4108   -1.8706    0.8741 H         1 <0>         0.0576
     58 H19        -2.9770   -3.4335    0.1024 H         1 <0>         0.0652
     59 H20        -0.9301   -2.3292    0.8966 H         1 <0>         0.0643
     60 H21        -0.9472   -2.3195   -0.8995 H         1 <0>         0.0587
     61 H22         0.5341   -0.3685    0.8932 H         1 <0>         0.0478
     62 H23         0.5170   -0.3589   -0.9030 H         1 <0>         0.0493
     63 H24        -0.5507    1.8901   -0.8808 H         1 <0>         0.0723
     64 H25        -0.5336    1.8806    0.9154 H         1 <0>         0.0707
     65 H26         1.9486    1.6909    0.8908 H         1 <0>         0.0711
     66 H27         1.9316    1.7005   -0.9054 H         1 <0>         0.0719
     67 H28         1.3840    3.7225   -2.1239 H         1 <0>         0.1288
     68 H29         1.4150    3.6995    2.1412 H         1 <0>         0.1247
     69 H30         1.4095    5.9131    4.6425 H         1 <0>         0.0599
     70 H31         2.3135    4.7499    3.6145 H         1 <0>         0.0604
     71 H32         0.5175    4.7254    3.6323 H         1 <0>         0.0606
     72 H33         2.6224    7.8110    3.5615 H         1 <0>         0.0661
     73 H34         2.6024    7.9880    1.7740 H         1 <0>         0.0590
     74 H35         3.5264    6.6479    2.5336 H         1 <0>         0.0645
     75 H36         0.1244    7.7770    3.5861 H         1 <0>         0.0661
     76 H37        -0.7678    6.5895    2.5759 H         1 <0>         0.0647
     77 H38         0.1043    7.9540    1.7986 H         1 <0>         0.0590
     78 H39         1.3416    8.2321    0.9861 H         1 <0>         0.4183
     79 H40         1.3200    5.9626   -4.6007 H         1 <0>         0.0576
     80 H41         0.4476    4.7642   -3.5861 H         1 <0>         0.0573
     81 H42         2.2436    4.7885   -3.6030 H         1 <0>         0.0570
     82 H43         0.0558    7.8151   -3.4995 H         1 <0>         0.0529
     83 H44         0.0706    7.9729   -1.7102 H         1 <0>         0.0709
     84 H45        -0.8166    6.6166   -2.4849 H         1 <0>         0.0493
     85 H46         2.5539    7.8490   -3.5232 H         1 <0>         0.0529
     86 H47         3.4776    6.6751   -2.5255 H         1 <0>         0.0491
     87 H48         2.5686    8.0069   -1.7339 H         1 <0>         0.0709
     88 H49        -0.4250   -9.8036   -8.7489 H         1 <0>         0.4419
@<TRIPOS>BOND
     1    1    2 1
     2    1   40 1
     3    1   41 1
     4    1   42 1
     5    2    8 1
     6    2    3 2
     7    3    4 1
     8    3   39 1
     9    4    5 2
    10    4    6 1
    11    6    7 2
    12    6   43 1
    13    7    8 1
    14    7   44 1
    15    8    9 1
    16    9   10 1
    17    9   45 1
    18    9   46 1
    19   10   11 1
    20   10   47 1
    21   10   48 1
    22   11   12 1
    23   12   13 1
    24   12   49 1
    25   12   50 1
    26   13   14 1
    27   13   51 1
    28   13   52 1
    29   14   15 1
    30   15   16 1
    31   15   53 1
    32   15   54 1
    33   16   17 1
    34   16   55 1
    35   16   56 1
    36   17   18 1
    37   18   19 1
    38   18   57 1
    39   18   58 1
    40   19   20 1
    41   19   59 1
    42   19   60 1
    43   20   21 1
    44   21   22 1
    45   21   61 1
    46   21   62 1
    47   22   23 1
    48   22   63 1
    49   22   64 1
    50   23   24 1
    51   23   65 1
    52   23   66 1
    53   24   29 ar
    54   24   25 ar
    55   25   26 ar
    56   25   67 1
    57   26   27 ar
    58   26   35 1
    59   27   28 ar
    60   27   34 1
    61   28   29 ar
    62   28   30 1
    63   29   68 1
    64   30   31 1
    65   30   32 1
    66   30   33 1
    67   31   69 1
    68   31   70 1
    69   31   71 1
    70   32   72 1
    71   32   73 1
    72   32   74 1
    73   33   75 1
    74   33   76 1
    75   33   77 1
    76   34   78 1
    77   35   36 1
    78   35   37 1
    79   35   38 1
    80   36   79 1
    81   36   80 1
    82   36   81 1
    83   37   82 1
    84   37   83 1
    85   37   84 1
    86   38   85 1
    87   38   86 1
    88   38   87 1
    89   39   88 1
@<TRIPOS>MOLECULE
ZINC35384125
   73    75     0     0     0
SMALL
USER_CHARGES

@<TRIPOS>ATOM
      1 C1          0.6988    1.7908   -0.0648 C.3       1 <0>        -0.1524
      2 C2          0.7198    0.2626    0.0077 C.3       1 <0>         0.0573
      3 O1          1.2670   -0.2643   -1.2026 O.3       1 <0>        -0.3889
      4 C3          1.3319   -1.6913   -1.2383 C.3       1 <0>         0.0664
      5 C4          1.9306   -2.1415   -2.5724 C.3       1 <0>        -0.1350
      6 C5          2.0000   -3.6694   -2.6106 C.3       1 <0>         0.1217
      7 N1          2.5732   -4.1004   -3.8880 N.am      1 <0>        -0.5866
      8 C6          4.0273   -4.1722   -4.0513 C.3       1 <0>         0.0879
      9 C7          4.4942   -5.5794   -3.7815 C.2       1 <0>         0.5069
     10 O2          3.6914   -6.4378   -3.4823 O.2       1 <0>        -0.5145
     11 N2          5.8039   -5.8840   -3.8728 N.am      1 <0>        -0.6049
     12 C8          6.2579   -7.2520   -3.6105 C.3       1 <0>         0.1212
     13 C9          6.1322   -8.0848   -4.8878 C.3       1 <0>        -0.0889
     14 C10         6.5991   -9.4920   -4.6180 C.ar      1 <0>        -0.0791
     15 C11         7.9286   -9.8246   -4.8008 C.ar      1 <0>        -0.1125
     16 C12         8.3618  -11.1140   -4.5547 C.ar      1 <0>        -0.1707
     17 C13         7.4631  -12.0764   -4.1233 C.ar      1 <0>         0.0973
     18 C14         6.1251  -11.7416   -3.9389 C.ar      1 <0>         0.1026
     19 C15         5.6983  -10.4460   -4.1828 C.ar      1 <0>        -0.1642
     20 O3          5.2392  -12.6826   -3.5156 O.3       1 <0>        -0.3065
     21 C16         3.8821  -12.2673   -3.3482 C.3       1 <0>         0.0259
     22 O4          7.8876  -13.3455   -3.8812 O.3       1 <0>        -0.3070
     23 C17         9.2745  -13.6171   -4.0924 C.3       1 <0>         0.0262
     24 C18         6.7737   -4.8471   -4.2342 C.3       1 <0>         0.1915
     25 C19         7.3682   -4.2567   -2.9816 C.2       1 <0>        -0.1829
     26 C20         8.5338   -4.5652   -2.3625 C.2       1 <0>        -0.0973
     27 C21         8.8818   -3.8845   -1.2108 C.2       1 <0>        -0.1574
     28 C22         8.0470   -2.9286   -0.7346 C.2       1 <0>        -0.1572
     29 S1          6.7236   -2.9640   -1.9324 S.3       1 <0>         0.0316
     30 C23         9.4368   -5.6347   -2.9210 C.3       1 <0>        -0.1064
     31 C24         1.7628   -4.4309   -4.9130 C.2       1 <0>         0.6132
     32 O5          0.5597   -4.2791   -4.8109 O.2       1 <0>        -0.5081
     33 C25         2.3310   -4.9734   -6.1515 C.2       1 <0>        -0.0782
     34 C26         1.6424   -5.2429   -7.2994 C.2       1 <0>        -0.1138
     35 C27         2.5750   -5.7437   -8.2212 C.2       1 <0>        -0.2194
     36 C28         3.7767   -5.7576   -7.6034 C.2       1 <0>        -0.0090
     37 O6          3.6265   -5.2881   -6.3581 O.3       1 <0>        -0.1655
     38 H1          1.7151    2.1623   -0.1960 H         1 <0>         0.0626
     39 H2          0.0850    2.1060   -0.9086 H         1 <0>         0.0633
     40 H3          0.2814    2.1927    0.8584 H         1 <0>         0.0714
     41 H4          1.3336   -0.0526    0.8515 H         1 <0>         0.0479
     42 H5         -0.2965   -0.1089    0.1389 H         1 <0>         0.0489
     43 H6          1.9584   -2.0472   -0.4204 H         1 <0>         0.0503
     44 H7          0.3283   -2.1034   -1.1330 H         1 <0>         0.0528
     45 H8          1.3040   -1.7857   -3.3903 H         1 <0>         0.0795
     46 H9          2.9342   -1.7294   -2.6777 H         1 <0>         0.0734
     47 H10         2.6265   -4.0252   -1.7927 H         1 <0>         0.0814
     48 H11         0.9963   -4.0815   -2.5053 H         1 <0>         0.0954
     49 H12         4.2929   -3.8904   -5.0702 H         1 <0>         0.1171
     50 H13         4.5059   -3.4897   -3.3491 H         1 <0>         0.1097
     51 H14         7.2994   -7.2340   -3.2895 H         1 <0>         0.0841
     52 H15         5.6436   -7.6946   -2.8263 H         1 <0>         0.0832
     53 H16         5.0907   -8.1028   -5.2088 H         1 <0>         0.0779
     54 H17         6.7465   -7.6422   -5.6720 H         1 <0>         0.0749
     55 H18         8.6301   -9.0754   -5.1370 H         1 <0>         0.1262
     56 H19         9.4007  -11.3714   -4.6990 H         1 <0>         0.1354
     57 H20         4.6611  -10.1826   -4.0368 H         1 <0>         0.1357
     58 H21         3.8355  -11.4676   -2.6090 H         1 <0>         0.0557
     59 H22         3.4928  -11.9055   -4.2998 H         1 <0>         0.0552
     60 H23         3.2830  -13.1119   -3.0080 H         1 <0>         0.1017
     61 H24         9.5297  -13.4164   -5.1329 H         1 <0>         0.0548
     62 H25         9.8729  -12.9790   -3.4420 H         1 <0>         0.0547
     63 H26         9.4790  -14.6629   -3.8633 H         1 <0>         0.1009
     64 H27         7.5660   -5.2861   -4.8405 H         1 <0>         0.1071
     65 H28         6.2729   -4.0636   -4.8029 H         1 <0>         0.0965
     66 H29         9.8048   -4.1112   -0.6979 H         1 <0>         0.1356
     67 H30         8.1561   -2.3047    0.1401 H         1 <0>         0.1869
     68 H31        10.2010   -5.1743   -3.5472 H         1 <0>         0.0732
     69 H32         9.9138   -6.1720   -2.1014 H         1 <0>         0.0689
     70 H33         8.8486   -6.3312   -3.5185 H         1 <0>         0.0672
     71 H34         0.5851   -5.0988   -7.4658 H         1 <0>         0.1606
     72 H35         2.3705   -6.0588   -9.2338 H         1 <0>         0.1575
     73 H36         4.7059   -6.0896   -8.0426 H         1 <0>         0.2089
@<TRIPOS>BOND
     1    1    2 1
     2    1   38 1
     3    1   39 1
     4    1   40 1
     5    2    3 1
     6    2   41 1
     7    2   42 1
     8    3    4 1
     9    4    5 1
    10    4   43 1
    11    4   44 1
    12    5    6 1
    13    5   45 1
    14    5   46 1
    15    6    7 1
    16    6   47 1
    17    6   48 1
    18    7    8 1
    19    7   31 am
    20    8    9 1
    21    8   49 1
    22    8   50 1
    23    9   10 2
    24    9   11 am
    25   11   12 1
    26   11   24 1
    27   12   13 1
    28   12   51 1
    29   12   52 1
    30   13   14 1
    31   13   53 1
    32   13   54 1
    33   14   19 ar
    34   14   15 ar
    35   15   16 ar
    36   15   55 1
    37   16   17 ar
    38   16   56 1
    39   17   18 ar
    40   17   22 1
    41   18   19 ar
    42   18   20 1
    43   19   57 1
    44   20   21 1
    45   21   58 1
    46   21   59 1
    47   21   60 1
    48   22   23 1
    49   23   61 1
    50   23   62 1
    51   23   63 1
    52   24   25 1
    53   24   64 1
    54   24   65 1
    55   25   29 1
    56   25   26 2
    57   26   27 1
    58   26   30 1
    59   27   28 2
    60   27   66 1
    61   28   29 1
    62   28   67 1
    63   30   68 1
    64   30   69 1
    65   30   70 1
    66   31   32 2
    67   31   33 1
    68   33   37 1
    69   33   34 2
    70   34   35 1
    71   34   71 1
    72   35   36 2
    73   35   72 1
    74   36   37 1
    75   36   73 1
@<TRIPOS>MOLECULE
ZINC14158236
   68    70     0     0     0
SMALL
USER_CHARGES

@<TRIPOS>ATOM
      1 C1         -1.1381   -3.1453   -1.0144 C.3       1 <0>        -0.1077
      2 C2          0.2405   -2.7968   -0.5153 C.ar      1 <0>         0.2196
      3 C3          1.3164   -2.7679   -1.3887 C.ar      1 <0>        -0.2680
      4 C4          2.5673   -2.4421   -0.8882 C.ar      1 <0>         0.2221
      5 N1          2.6958   -2.1702    0.3999 N.ar      1 <0>        -0.5500
      6 C5          1.6470   -2.2068    1.2076 C.ar      1 <0>         0.5667
      7 N2          0.4377   -2.5094    0.7607 N.ar      1 <0>        -0.5654
      8 N3          1.8184   -1.9157    2.5543 N.pl3     1 <0>        -0.6819
      9 C6          0.7333   -1.8660    3.3873 C.2       1 <0>         0.7423
     10 N4          0.5152   -2.8455    4.2478 N.2       1 <0>        -0.6113
     11 C7          1.3180   -3.9192    4.2588 C.2       1 <0>         0.5592
     12 S1          2.9675   -3.7505    4.6852 S.2       1 <0>        -0.6063
     13 N5          0.8265   -5.1315    3.9341 N.pl3     1 <0>        -0.6001
     14 C8          1.6370   -6.2668    4.0421 C.ar      1 <0>         0.1013
     15 C9          2.4116   -6.4586    5.1768 C.ar      1 <0>         0.0307
     16 C10         3.2213   -7.5908    5.2882 C.ar      1 <0>        -0.1271
     17 C11         3.2506   -8.5286    4.2576 C.ar      1 <0>         0.0035
     18 C12         2.4711   -8.3327    3.1191 C.ar      1 <0>        -0.1315
     19 C13         1.6597   -7.2008    3.0168 C.ar      1 <0>        -0.0223
     20 C14         2.4994   -9.3240    2.0237 C.2       1 <0>         0.5146
     21 O1          1.8197   -9.1525    1.0317 O.2       1 <0>        -0.5009
     22 O2          3.2789  -10.4179    2.1252 O.3       1 <0>        -0.3455
     23 C15         3.2571  -11.3341    1.0288 C.3       1 <0>         0.0344
     24 C16         4.0464   -7.7940    6.4970 C.2       1 <0>         0.5110
     25 O3          4.0206   -6.9760    7.3945 O.2       1 <0>        -0.4887
     26 O4          4.8273   -8.8865    6.6036 O.3       1 <0>        -0.3485
     27 C17         5.5982   -9.0187    7.7995 C.3       1 <0>         0.0347
     28 N6         -0.1235   -0.8049    3.3295 N.pl3     1 <0>        -0.6660
     29 C18         0.0638    0.2334    2.3131 C.3       1 <0>         0.1207
     30 C19         0.6261    1.4953    2.9706 C.3       1 <0>         0.0347
     31 N7          0.6778    2.5809    1.9824 N.3       1 <0>        -0.5331
     32 C20         1.7594    2.3587    1.0117 C.3       1 <0>         0.0163
     33 C21         1.7394    3.4789   -0.0318 C.3       1 <0>         0.0645
     34 O5          1.8562    4.7416    0.6294 O.3       1 <0>        -0.3829
     35 C22         0.8186    4.9912    1.5814 C.3       1 <0>         0.0630
     36 C23         0.8292    3.8864    2.6413 C.3       1 <0>         0.0182
     37 C24         3.7661   -2.3986   -1.8003 C.3       1 <0>        -0.1104
     38 H1         -1.6550   -2.2353   -1.3190 H         1 <0>         0.0890
     39 H2         -1.0561   -3.8193   -1.8671 H         1 <0>         0.0850
     40 H3         -1.7002   -3.6333   -0.2182 H         1 <0>         0.0819
     41 H4          1.1831   -2.9947   -2.4362 H         1 <0>         0.1497
     42 H5          2.7071   -1.7475    2.9048 H         1 <0>         0.4488
     43 H6         -0.0891   -5.2168    3.6256 H         1 <0>         0.4154
     44 H7          2.3887   -5.7313    5.9749 H         1 <0>         0.1625
     45 H8          3.8763   -9.4050    4.3410 H         1 <0>         0.1603
     46 H9          1.0520   -7.0506    2.1367 H         1 <0>         0.1468
     47 H10         3.9270  -12.1679    1.2387 H         1 <0>         0.1070
     48 H11         2.2432  -11.7089    0.8887 H         1 <0>         0.0633
     49 H12         3.5844  -10.8243    0.1227 H         1 <0>         0.0631
     50 H13         6.2718   -8.1670    7.8936 H         1 <0>         0.0634
     51 H14         4.9306   -9.0508    8.6605 H         1 <0>         0.0628
     52 H15         6.1803   -9.9393    7.7566 H         1 <0>         0.1057
     53 H16        -0.8564   -0.7383    3.9614 H         1 <0>         0.4271
     54 H17         0.7609   -0.1224    1.5544 H         1 <0>         0.0804
     55 H18        -0.8944    0.4627    1.8470 H         1 <0>         0.0990
     56 H19        -0.0163    1.7896    3.8005 H         1 <0>         0.0861
     57 H20         1.6308    1.2943    3.3425 H         1 <0>         0.0453
     58 H21         2.7188    2.3604    1.5291 H         1 <0>         0.0477
     59 H22         1.6133    1.3983    0.5175 H         1 <0>         0.0803
     60 H23         2.5745    3.3499   -0.7203 H         1 <0>         0.0995
     61 H24         0.8013    3.4435   -0.5858 H         1 <0>         0.0605
     62 H25         0.9877    5.9559    2.0597 H         1 <0>         0.1012
     63 H26        -0.1463    4.9998    1.0744 H         1 <0>         0.0615
     64 H27         0.0042    4.0410    3.3366 H         1 <0>         0.0898
     65 H28         1.7738    3.9124    3.1847 H         1 <0>         0.0468
     66 H29         3.8732   -1.3950   -2.2120 H         1 <0>         0.0897
     67 H30         4.6619   -2.6571   -1.2355 H         1 <0>         0.0856
     68 H31         3.6304   -3.1122   -2.6130 H         1 <0>         0.0851
@<TRIPOS>BOND
     1    1    2 1
     2    1   38 1
     3    1   39 1
     4    1   40 1
     5    2    7 ar
     6    2    3 ar
     7    3    4 ar
     8    3   41 1
     9    4    5 ar
    10    4   37 1
    11    5    6 ar
    12    6    7 ar
    13    6    8 1
    14    8    9 1
    15    8   42 1
    16    9   10 2
    17    9   28 1
    18   10   11 1
    19   11   12 2
    20   11   13 1
    21   13   14 1
    22   13   43 1
    23   14   19 ar
    24   14   15 ar
    25   15   16 ar
    26   15   44 1
    27   16   17 ar
    28   16   24 1
    29   17   18 ar
    30   17   45 1
    31   18   19 ar
    32   18   20 1
    33   19   46 1
    34   20   21 2
    35   20   22 1
    36   22   23 1
    37   23   47 1
    38   23   48 1
    39   23   49 1
    40   24   25 2
    41   24   26 1
    42   26   27 1
    43   27   50 1
    44   27   51 1
    45   27   52 1
    46   28   29 1
    47   28   53 1
    48   29   30 1
    49   29   54 1
    50   29   55 1
    51   30   31 1
    52   30   56 1
    53   30   57 1
    54   31   36 1
    55   31   32 1
    56   32   33 1
    57   32   58 1
    58   32   59 1
    59   33   34 1
    60   33   60 1
    61   33   61 1
    62   34   35 1
    63   35   36 1
    64   35   62 1
    65   35   63 1
    66   36   64 1
    67   36   65 1
    68   37   66 1
    69   37   67 1
    70   37   68 1
@<TRIPOS>MOLECULE
ZINC09312162
   69    72     0     0     0
SMALL
USER_CHARGES
(5R)-5-(4-allyloxy-3-ethoxy-phenyl)-3-hydroxy-1-(3-methoxypropyl)-4-[(2R)-2-methyl2,3-dihydrobenzofuran-5-carbonyl]-5H-pyrrol-2-one
@<TRIPOS>ATOM
      1 C1         -4.8323   -4.4979    4.9312 C.3       1 <0>        -0.1506
      2 C2         -3.8780   -3.3584    4.5685 C.3       1 <0>         0.0513
      3 O1         -4.4014   -2.1235    5.0615 O.3       1 <0>        -0.3078
      4 C3         -3.6282   -1.0166    4.8994 C.ar      1 <0>         0.0990
      5 C4         -2.4413   -1.0967    4.1887 C.ar      1 <0>        -0.1642
      6 C5         -1.6539    0.0284    4.0293 C.ar      1 <0>        -0.0701
      7 C6         -2.0529    1.2372    4.5687 C.ar      1 <0>        -0.0842
      8 C7         -3.2382    1.3250    5.2747 C.ar      1 <0>        -0.1716
      9 C8         -4.0296    0.2000    5.4426 C.ar      1 <0>         0.0902
     10 O2         -5.1961    0.2848    6.1364 O.3       1 <0>        -0.3034
     11 C9         -5.5448    1.5658    6.6653 C.3       1 <0>         0.0834
     12 C10        -6.8586    1.4665    7.3968 C.2       1 <0>        -0.1527
     13 C11        -6.9990    2.0311    8.5706 C.2       1 <0>        -0.1805
     14 C12        -0.3609   -0.0617    3.2606 C.3       1 <0>         0.2677
     15 H1         -0.3623   -1.0067    2.6977 H         1 <0>         0.0679
     16 C13         0.8155    0.0375    4.2036 C.2       1 <0>        -0.4982
     17 C14         1.5164    1.1363    3.8393 C.2       1 <0>         0.2651
     18 C15         0.8541    1.7731    2.6816 C.2       1 <0>         0.5123
     19 O3          1.2426    2.7795    2.1228 O.2       1 <0>        -0.5337
     20 N1         -0.2423    1.0732    2.3377 N.am      1 <0>        -0.6100
     21 C16        -1.1591    1.3914    1.2402 C.3       1 <0>         0.1393
     22 C17        -0.6843    0.6978   -0.0382 C.3       1 <0>        -0.1377
     23 C18        -1.6418    1.0301   -1.1844 C.3       1 <0>         0.0645
     24 O4         -1.1983    0.3823   -2.3784 O.3       1 <0>        -0.3905
     25 C19        -2.0277    0.6287   -3.5157 C.3       1 <0>         0.0295
     26 O5          2.6447    1.5809    4.4392 O.3       1 <0>        -0.6522
     27 C20         1.1331   -0.8770    5.3049 C.2       1 <0>         0.5077
     28 O6          1.1030   -0.4788    6.4545 O.2       1 <0>        -0.4759
     29 C21         1.4893   -2.2807    5.0193 C.ar      1 <0>        -0.1633
     30 C22         1.5978   -2.7256    3.6979 C.ar      1 <0>        -0.0305
     31 C23         1.9317   -4.0322    3.4337 C.ar      1 <0>        -0.1532
     32 C24         2.1534   -4.9310    4.4792 C.ar      1 <0>         0.1179
     33 C25         2.0446   -4.4822    5.7928 C.ar      1 <0>        -0.1958
     34 C26         1.7156   -3.1784    6.0682 C.ar      1 <0>        -0.0246
     35 C27         2.3539   -5.6640    6.6919 C.3       1 <0>        -0.0997
     36 C28         3.0206   -6.6503    5.7040 C.3       1 <0>         0.0794
     37 H2          4.1193   -6.6103    5.6698 H         1 <0>         0.0885
     38 O7          2.4718   -6.2523    4.4364 O.3       1 <0>        -0.3039
     39 C29         2.6321   -8.0930    6.0336 C.3       1 <0>        -0.1554
     40 H3         -4.4293   -5.4485    4.5517 H         1 <0>         0.0759
     41 H4         -5.8168   -4.3100    4.4779 H         1 <0>         0.0641
     42 H5         -4.9369   -4.5545    6.0248 H         1 <0>         0.0648
     43 H6         -2.8935   -3.5463    5.0218 H         1 <0>         0.0621
     44 H7         -3.7734   -3.3018    3.4750 H         1 <0>         0.0598
     45 H8         -2.1294   -2.0389    3.7629 H         1 <0>         0.1318
     46 H9         -1.4370    2.1148    4.4385 H         1 <0>         0.1228
     47 H10        -3.5476    2.2705    5.6950 H         1 <0>         0.1295
     48 H11        -4.7618    1.9005    7.3616 H         1 <0>         0.0668
     49 H12        -5.6372    2.2896    5.8421 H         1 <0>         0.0699
     50 H13        -7.6997    0.9200    6.9452 H         1 <0>         0.1203
     51 H14        -7.9580    1.9587    9.1046 H         1 <0>         0.1079
     52 H15        -6.1579    2.5776    9.0222 H         1 <0>         0.1019
     53 H16        -2.1703    1.0406    1.4938 H         1 <0>         0.0772
     54 H17        -1.1776    2.4798    1.0817 H         1 <0>         0.0798
     55 H18         0.3270    1.0486   -0.2918 H         1 <0>         0.0774
     56 H19        -0.6658   -0.3906    0.1203 H         1 <0>         0.0747
     57 H20        -2.6530    0.6793   -0.9308 H         1 <0>         0.0498
     58 H21        -1.6603    2.1185   -1.3429 H         1 <0>         0.0507
     59 H22        -1.6202    0.0977   -4.3886 H         1 <0>         0.0847
     60 H23        -2.0543    1.7087   -3.7230 H         1 <0>         0.0404
     61 H24        -3.0470    0.2694   -3.3109 H         1 <0>         0.0399
     62 H25         1.4230   -2.0391    2.8827 H         1 <0>         0.1432
     63 H26         2.0187   -4.3673    2.4107 H         1 <0>         0.1283
     64 H27         1.6320   -2.8461    7.0924 H         1 <0>         0.1305
     65 H28         3.0261   -5.3429    7.5012 H         1 <0>         0.0905
     66 H29         1.4190   -6.0509    7.1235 H         1 <0>         0.0906
     67 H30         3.1167   -8.7754    5.3198 H         1 <0>         0.0666
     68 H31         1.5400   -8.2038    5.9632 H         1 <0>         0.0657
     69 H32         2.9604   -8.3369    7.0547 H         1 <0>         0.0781
@<TRIPOS>BOND
     1    1    2 1
     2    1   40 1
     3    1   41 1
     4    1   42 1
     5    2    3 1
     6    2   43 1
     7    2   44 1
     8    3    4 1
     9    4    9 ar
    10    4    5 ar
    11    5    6 ar
    12    5   45 1
    13    6    7 ar
    14    6   14 1
    15    7    8 ar
    16    7   46 1
    17    8    9 ar
    18    8   47 1
    19    9   10 1
    20   10   11 1
    21   11   12 1
    22   11   48 1
    23   11   49 1
    24   12   13 2
    25   12   50 1
    26   13   51 1
    27   13   52 1
    28   14   15 1
    29   14   20 1
    30   14   16 1
    31   16   17 2
    32   16   27 1
    33   17   18 1
    34   17   26 1
    35   18   19 2
    36   18   20 am
    37   20   21 1
    38   21   22 1
    39   21   53 1
    40   21   54 1
    41   22   23 1
    42   22   55 1
    43   22   56 1
    44   23   24 1
    45   23   57 1
    46   23   58 1
    47   24   25 1
    48   25   59 1
    49   25   60 1
    50   25   61 1
    51   27   28 2
    52   27   29 1
    53   29   34 ar
    54   29   30 ar
    55   30   31 ar
    56   30   62 1
    57   31   32 ar
    58   31   63 1
    59   32   38 1
    60   32   33 ar
    61   33   34 ar
    62   33   35 1
    63   34   64 1
    64   35   36 1
    65   35   65 1
    66   35   66 1
    67   36   37 1
    68   36   38 1
    69   36   39 1
    70   39   67 1
    71   39   68 1
    72   39   69 1
@<TRIPOS>MOLECULE
ZINC34704909
   69    71     0     0     0
SMALL
USER_CHARGES

@<TRIPOS>ATOM
      1 C1          0.6840    1.5177    1.7204 C.3       1 <0>        -0.1519
      2 C2          0.1774    0.1340    1.3088 C.3       1 <0>        -0.1700
      3 C3          1.3452   -0.8546    1.2994 C.3       1 <0>         0.1451
      4 H1          1.9805   -0.6747    2.1666 H         1 <0>         0.0954
      5 C4          0.8033   -2.2845    1.3520 C.3       1 <0>        -0.1828
      6 N1          2.1282   -0.6738    0.0745 N.am      1 <0>        -0.6208
      7 C5          3.5912   -0.7326    0.1250 C.3       1 <0>         0.1035
      8 C6          4.0447   -2.1528   -0.0951 C.2       1 <0>         0.4959
      9 O1          3.2265   -3.0295   -0.2762 O.2       1 <0>        -0.5120
     10 N2          5.3596   -2.4487   -0.0906 N.am      1 <0>        -0.6090
     11 C7          5.8005   -3.8293   -0.3045 C.3       1 <0>         0.1225
     12 C8          6.0126   -4.0710   -1.8003 C.3       1 <0>        -0.0907
     13 C9          6.4662   -5.4911   -2.0203 C.ar      1 <0>        -0.0788
     14 C10         7.8151   -5.7939   -2.0097 C.ar      1 <0>        -0.1120
     15 C11         8.2362   -7.0951   -2.2111 C.ar      1 <0>        -0.1706
     16 C12         7.3055   -8.0994   -2.4237 C.ar      1 <0>         0.0973
     17 C13         5.9478   -7.7948   -2.4339 C.ar      1 <0>         0.1024
     18 C14         5.5322   -6.4893   -2.2266 C.ar      1 <0>        -0.1642
     19 O2          5.0306   -8.7770   -2.6421 O.3       1 <0>        -0.3064
     20 C15         3.6547   -8.3910   -2.6394 C.3       1 <0>         0.0260
     21 O3          7.7182   -9.3799   -2.6224 O.3       1 <0>        -0.3070
     22 C16         9.1269   -9.6186   -2.5991 C.3       1 <0>         0.0261
     23 C17         6.3479   -1.3896    0.1282 C.3       1 <0>         0.1869
     24 C18         6.6291   -1.2619    1.6032 C.2       1 <0>        -0.0452
     25 C19         7.5835   -1.9231    2.2823 C.2       1 <0>        -0.1849
     26 C20         7.4932   -1.5035    3.6294 C.2       1 <0>        -0.2148
     27 C21         6.4889   -0.6108    3.6929 C.2       1 <0>        -0.0304
     28 O4          5.9730   -0.4641    2.4616 O.3       1 <0>        -0.1752
     29 C22         1.5027   -0.4535   -1.0988 C.2       1 <0>         0.5941
     30 O5          1.9289    0.3875   -1.8663 O.2       1 <0>        -0.4956
     31 C23         0.2995   -1.2336   -1.4521 C.ar      1 <0>        -0.1764
     32 C24        -0.6506   -1.5393   -0.4752 C.ar      1 <0>        -0.0999
     33 C25        -1.7718   -2.2675   -0.8117 C.ar      1 <0>        -0.1472
     34 C26        -1.9586   -2.6971   -2.1147 C.ar      1 <0>        -0.0641
     35 C27        -1.0239   -2.4001   -3.0885 C.ar      1 <0>        -0.1676
     36 C28         0.1030   -1.6650   -2.7676 C.ar      1 <0>         0.1534
     37 F1          1.0138   -1.3700   -3.7208 F         1 <0>        -0.1249
     38 H2          1.4392    1.8543    1.0102 H         1 <0>         0.0584
     39 H3         -0.1479    2.2220    1.7271 H         1 <0>         0.0593
     40 H4          1.1215    1.4628    2.7172 H         1 <0>         0.0576
     41 H5         -0.5778   -0.2026    2.0190 H         1 <0>         0.0892
     42 H6         -0.2601    0.1889    0.3119 H         1 <0>         0.0897
     43 H7          0.9056   -2.7481    0.3708 H         1 <0>         0.0890
     44 H8          1.3671   -2.8599    2.0863 H         1 <0>         0.0580
     45 H9         -0.2487   -2.2641    1.6364 H         1 <0>         0.0664
     46 H10         4.0075   -0.0935   -0.6536 H         1 <0>         0.1122
     47 H11         3.9352   -0.3883    1.1002 H         1 <0>         0.1126
     48 H12         6.7369   -3.9981    0.2272 H         1 <0>         0.0808
     49 H13         5.0410   -4.5154    0.0703 H         1 <0>         0.0873
     50 H14         5.0762   -3.9021   -2.3320 H         1 <0>         0.0767
     51 H15         6.7721   -3.3848   -2.1751 H         1 <0>         0.0761
     52 H16         8.5415   -5.0120   -1.8441 H         1 <0>         0.1267
     53 H17         9.2906   -7.3288   -2.2030 H         1 <0>         0.1357
     54 H18         4.4789   -6.2508   -2.2304 H         1 <0>         0.1357
     55 H19         3.4018   -7.9542   -1.6733 H         1 <0>         0.0555
     56 H20         3.4817   -7.6571   -3.4265 H         1 <0>         0.0549
     57 H21         3.0311   -9.2673   -2.8163 H         1 <0>         0.1014
     58 H22         9.6079   -9.0312   -3.3812 H         1 <0>         0.0549
     59 H23         9.5285   -9.3288   -1.6281 H         1 <0>         0.0548
     60 H24         9.3188  -10.6778   -2.7702 H         1 <0>         0.1010
     61 H25         7.2699   -1.6389   -0.3971 H         1 <0>         0.1170
     62 H26         5.9580   -0.4449   -0.2505 H         1 <0>         0.0990
     63 H27         8.2840   -2.6380    1.8765 H         1 <0>         0.1481
     64 H28         8.1116   -1.8360    4.4500 H         1 <0>         0.1495
     65 H29         6.1565   -0.0963    4.5824 H         1 <0>         0.2040
     66 H30        -0.5071   -1.2062    0.5420 H         1 <0>         0.1905
     67 H31        -2.5066   -2.5040   -0.0565 H         1 <0>         0.1348
     68 H32        -2.8390   -3.2675   -2.3713 H         1 <0>         0.1363
     69 H33        -1.1758   -2.7390   -4.1026 H         1 <0>         0.1408
@<TRIPOS>BOND
     1    1    2 1
     2    1   38 1
     3    1   39 1
     4    1   40 1
     5    2    3 1
     6    2   41 1
     7    2   42 1
     8    3    4 1
     9    3    5 1
    10    3    6 1
    11    5   43 1
    12    5   44 1
    13    5   45 1
    14    6    7 1
    15    6   29 am
    16    7    8 1
    17    7   46 1
    18    7   47 1
    19    8    9 2
    20    8   10 am
    21   10   11 1
    22   10   23 1
    23   11   12 1
    24   11   48 1
    25   11   49 1
    26   12   13 1
    27   12   50 1
    28   12   51 1
    29   13   18 ar
    30   13   14 ar
    31   14   15 ar
    32   14   52 1
    33   15   16 ar
    34   15   53 1
    35   16   17 ar
    36   16   21 1
    37   17   18 ar
    38   17   19 1
    39   18   54 1
    40   19   20 1
    41   20   55 1
    42   20   56 1
    43   20   57 1
    44   21   22 1
    45   22   58 1
    46   22   59 1
    47   22   60 1
    48   23   24 1
    49   23   61 1
    50   23   62 1
    51   24   28 1
    52   24   25 2
    53   25   26 1
    54   25   63 1
    55   26   27 2
    56   26   64 1
    57   27   28 1
    58   27   65 1
    59   29   30 2
    60   29   31 1
    61   31   36 ar
    62   31   32 ar
    63   32   33 ar
    64   32   66 1
    65   33   34 ar
    66   33   67 1
    67   34   35 ar
    68   34   68 1
    69   35   36 ar
    70   35   69 1
    71   36   37 1
@<TRIPOS>MOLECULE
ZINC36058337
   67    69     0     0     0
SMALL
USER_CHARGES

@<TRIPOS>ATOM
      1 C1         -3.3459   -2.8253    1.5816 C.3       1 <0>        -0.1472
      2 C2         -3.6624   -1.3389    1.4046 C.3       1 <0>        -0.1293
      3 C3         -3.3134   -0.5865    2.6903 C.3       1 <0>         0.1547
      4 H1         -3.8333   -1.0443    3.5318 H         1 <0>         0.0827
      5 C4         -3.7446    0.8756    2.5587 C.3       1 <0>        -0.1585
      6 N1         -1.8673   -0.6506    2.9164 N.pl3     1 <0>        -0.7470
      7 C5         -1.3655   -0.6049    4.2061 C.2       1 <0>         0.5039
      8 O1         -2.2134   -0.6043    5.2635 O.3       1 <0>        -0.7030
      9 C6         -0.0349   -0.5609    4.4099 C.2       1 <0>        -0.4680
     10 C7          0.4951   -0.3880    5.7700 C.2       1 <0>         0.2326
     11 C8         -0.3220   -0.4021    6.8462 C.2       1 <0>        -0.3079
     12 S1          0.8275   -0.1551    8.1850 S.3       1 <0>         0.1360
     13 C9          2.2447   -0.0532    7.2916 C.2       1 <0>         0.3194
     14 N2          3.4965    0.1286    7.6590 N.2       1 <0>        -0.5961
     15 C10         4.5256    0.1878    6.8296 C.2       1 <0>         0.2992
     16 C11         4.3355    0.0561    5.4674 C.2       1 <0>        -0.3890
     17 C12         2.9231   -0.1556    4.9697 C.3       1 <0>         0.2635
     18 H2          2.6883    0.6499    4.2739 H         1 <0>         0.0774
     19 N3          1.8460   -0.2111    5.9937 N.pl3     1 <0>        -0.5131
     20 C13         2.8916   -1.4511    4.2005 C.ar      1 <0>        -0.0676
     21 C14         2.9573   -1.4352    2.8196 C.ar      1 <0>        -0.0782
     22 C15         2.9288   -2.6209    2.1095 C.ar      1 <0>        -0.1765
     23 C16         2.8345   -3.8289    2.7817 C.ar      1 <0>         0.0944
     24 C17         2.7687   -3.8450    4.1716 C.ar      1 <0>         0.0969
     25 C18         2.8027   -2.6531    4.8775 C.ar      1 <0>        -0.1392
     26 O2          2.6761   -5.0281    4.8358 O.3       1 <0>        -0.3099
     27 C19         2.5058   -4.9647    6.2532 C.3       1 <0>         0.0285
     28 O3          2.8058   -4.9962    2.0845 O.3       1 <0>        -0.3097
     29 C20         2.8767   -4.9032    0.6603 C.3       1 <0>         0.0295
     30 C21         5.4146    0.1171    4.5773 C.2       1 <0>         0.5387
     31 O4          6.5550    0.1645    5.0045 O.2       1 <0>        -0.5503
     32 O5          5.1915    0.1233    3.2444 O.3       1 <0>        -0.3463
     33 C22         6.3392    0.0760    2.3943 C.3       1 <0>         0.0720
     34 C23         5.8995    0.2159    0.9356 C.3       1 <0>         0.0634
     35 O6          5.3534    1.5197    0.7257 O.3       1 <0>        -0.3823
     36 C24         4.8080    1.7181   -0.5801 C.3       1 <0>         0.0316
     37 C25         5.9144    0.4009    7.3744 C.3       1 <0>        -0.0924
     38 H3         -3.9332   -3.2259    2.4079 H         1 <0>         0.0527
     39 H4         -3.5945   -3.3613    0.6657 H         1 <0>         0.0451
     40 H5         -2.2845   -2.9476    1.7974 H         1 <0>         0.0575
     41 H6         -3.0751   -0.9382    0.5783 H         1 <0>         0.0572
     42 H7         -4.7238   -1.2166    1.1888 H         1 <0>         0.0647
     43 H8         -4.8033    0.9205    2.3030 H         1 <0>         0.0488
     44 H9         -3.5772    1.3904    3.5047 H         1 <0>         0.0589
     45 H10        -3.1607    1.3575    1.7745 H         1 <0>         0.0455
     46 H11        -1.2614   -0.7250    2.1626 H         1 <0>         0.3822
     47 H12         0.6427   -0.6528    3.5739 H         1 <0>         0.0894
     48 H13        -1.3937   -0.5299    6.8849 H         1 <0>         0.2370
     49 H14         3.0309   -0.4943    2.2946 H         1 <0>         0.1276
     50 H15         2.9796   -2.6056    1.0308 H         1 <0>         0.1282
     51 H16         2.7556   -2.6630    5.9564 H         1 <0>         0.1205
     52 H17         1.5485   -4.4971    6.4835 H         1 <0>         0.0558
     53 H18         2.5267   -5.9728    6.6671 H         1 <0>         0.0970
     54 H19         3.3123   -4.3758    6.6901 H         1 <0>         0.0499
     55 H20         3.8077   -4.4140    0.3741 H         1 <0>         0.0500
     56 H21         2.8444   -5.9037    0.2288 H         1 <0>         0.0947
     57 H22         2.0320   -4.3212    0.2917 H         1 <0>         0.0524
     58 H23         7.0147    0.8922    2.6501 H         1 <0>         0.0708
     59 H24         6.8523   -0.8762    2.5294 H         1 <0>         0.0741
     60 H25         6.7596    0.0726    0.2815 H         1 <0>         0.0651
     61 H26         5.1427   -0.5355    0.7105 H         1 <0>         0.0603
     62 H27         5.6063    1.6599   -1.3200 H         1 <0>         0.0378
     63 H28         4.0658    0.9465   -0.7850 H         1 <0>         0.0423
     64 H29         4.3359    2.6992   -0.6315 H         1 <0>         0.0852
     65 H30         5.8702    0.4824    8.4604 H         1 <0>         0.0640
     66 H31         6.5463   -0.4434    7.0988 H         1 <0>         0.0888
     67 H32         6.3313    1.3179    6.9579 H         1 <0>         0.0833
@<TRIPOS>BOND
     1    1    2 1
     2    1   38 1
     3    1   39 1
     4    1   40 1
     5    2    3 1
     6    2   41 1
     7    2   42 1
     8    3    4 1
     9    3    5 1
    10    3    6 1
    11    5   43 1
    12    5   44 1
    13    5   45 1
    14    6    7 1
    15    6   46 1
    16    7    8 1
    17    7    9 2
    18    9   10 1
    19    9   47 1
    20   10   19 1
    21   10   11 2
    22   11   12 1
    23   11   48 1
    24   12   13 1
    25   13   19 1
    26   13   14 2
    27   14   15 1
    28   15   16 2
    29   15   37 1
    30   16   17 1
    31   16   30 1
    32   17   18 1
    33   17   19 1
    34   17   20 1
    35   20   25 ar
    36   20   21 ar
    37   21   22 ar
    38   21   49 1
    39   22   23 ar
    40   22   50 1
    41   23   24 ar
    42   23   28 1
    43   24   25 ar
    44   24   26 1
    45   25   51 1
    46   26   27 1
    47   27   52 1
    48   27   53 1
    49   27   54 1
    50   28   29 1
    51   29   55 1
    52   29   56 1
    53   29   57 1
    54   30   31 2
    55   30   32 1
    56   32   33 1
    57   33   34 1
    58   33   58 1
    59   33   59 1
    60   34   35 1
    61   34   60 1
    62   34   61 1
    63   35   36 1
    64   36   62 1
    65   36   63 1
    66   36   64 1
    67   37   65 1
    68   37   66 1
    69   37   67 1
@<TRIPOS>MOLECULE
ZINC40082917
   66    68     0     0     0
SMALL
USER_CHARGES

@<TRIPOS>ATOM
      1 C1          3.1422   -2.1313    3.7580 C.3       1 <0>        -0.1157
      2 C2          2.2108   -2.2734    2.5818 C.ar      1 <0>        -0.0229
      3 C3          2.5558   -3.0834    1.5233 C.ar      1 <0>        -0.1562
      4 C4          1.6974   -3.2149    0.4375 C.ar      1 <0>         0.1256
      5 C5          0.4873   -2.5299    0.4158 C.ar      1 <0>        -0.2092
      6 C6          0.1348   -1.7181    1.4700 C.ar      1 <0>        -0.0437
      7 C7          0.9927   -1.5876    2.5667 C.ar      1 <0>        -0.1362
      8 C8          0.6158   -0.7232    3.7023 C.2       1 <0>         0.4678
      9 O1          0.6959    0.4867    3.5990 O.2       1 <0>        -0.4890
     10 C9          0.1448   -1.3225    4.9551 C.2       1 <0>        -0.4771
     11 C10        -0.1445   -0.6684    6.1039 C.2       1 <0>         0.2779
     12 C11        -0.5851   -1.6457    7.1214 C.2       1 <0>         0.5075
     13 O2         -0.9153   -1.3686    8.2573 O.2       1 <0>        -0.5372
     14 N1         -0.5669   -2.8874    6.6036 N.am      1 <0>        -0.6034
     15 C12        -0.1172   -2.7885    5.2101 C.3       1 <0>         0.2554
     16 H1          0.7992   -3.3624    5.0728 H         1 <0>         0.0655
     17 C13        -1.1897   -3.2927    4.2792 C.ar      1 <0>        -0.0434
     18 C14        -2.3986   -2.6272    4.1948 C.ar      1 <0>        -0.0641
     19 C15        -3.3856   -3.0857    3.3424 C.ar      1 <0>        -0.1767
     20 C16        -3.1642   -4.2145    2.5698 C.ar      1 <0>         0.0894
     21 C17        -1.9473   -4.8841    2.6543 C.ar      1 <0>         0.1066
     22 C18        -0.9605   -4.4164    3.5072 C.ar      1 <0>        -0.1475
     23 O3         -1.7253   -5.9924    1.8981 O.3       1 <0>        -0.3113
     24 C19        -0.4918   -6.6832    2.1059 C.3       1 <0>         0.0314
     25 O4         -4.1343   -4.6672    1.7310 O.3       1 <0>        -0.3139
     26 C20        -5.3114   -3.8663    1.6083 C.3       1 <0>         0.0264
     27 C21        -0.9363   -4.1194    7.3050 C.3       1 <0>         0.1419
     28 C22        -2.4595   -4.2025    7.4221 C.3       1 <0>         0.0432
     29 O5         -3.0119   -4.6122    6.1695 O.3       1 <0>        -0.3547
     30 C23        -4.4176   -4.8660    6.2093 C.3       1 <0>         0.0654
     31 C24        -4.8720   -5.4320    4.8624 C.3       1 <0>         0.0657
     32 O6         -4.2447   -6.6967    4.6412 O.3       1 <0>        -0.5576
     33 O7         -0.0456    0.6679    6.2914 O.3       1 <0>        -0.6122
     34 O8          2.0416   -4.0135   -0.6042 O.3       1 <0>        -0.3138
     35 C25         1.1702   -4.0140   -1.7368 C.3       1 <0>         0.0866
     36 C26         1.7690   -4.8598   -2.8309 C.2       1 <0>        -0.1523
     37 C27         1.0194   -5.7132   -3.4836 C.2       1 <0>        -0.1753
     38 H2          2.8531   -2.8359    4.5377 H         1 <0>         0.0762
     39 H3          4.1636   -2.3403    3.4399 H         1 <0>         0.0632
     40 H4          3.0837   -1.1147    4.1470 H         1 <0>         0.0744
     41 H5          3.4946   -3.6171    1.5362 H         1 <0>         0.1266
     42 H6         -0.1766   -2.6348   -0.4295 H         1 <0>         0.1212
     43 H7         -0.8050   -1.1862    1.4522 H         1 <0>         0.1200
     44 H8         -2.5723   -1.7473    4.7965 H         1 <0>         0.1148
     45 H9         -4.3293   -2.5644    3.2789 H         1 <0>         0.1214
     46 H10        -0.0137   -4.9320    3.5719 H         1 <0>         0.1222
     47 H11         0.3398   -5.9940    1.9594 H         1 <0>         0.0521
     48 H12        -0.4627   -7.0770    3.1219 H         1 <0>         0.0513
     49 H13        -0.4117   -7.5056    1.3951 H         1 <0>         0.0903
     50 H14        -5.7513   -3.7135    2.5938 H         1 <0>         0.0484
     51 H15        -5.0507   -2.9015    1.1732 H         1 <0>         0.0521
     52 H16        -6.0301   -4.3730    0.9642 H         1 <0>         0.0930
     53 H17        -0.5673   -4.9798    6.7468 H         1 <0>         0.0879
     54 H18        -0.4949   -4.1164    8.3016 H         1 <0>         0.0857
     55 H19        -2.7258   -4.9275    8.1912 H         1 <0>         0.0513
     56 H20        -2.8571   -3.2241    7.6918 H         1 <0>         0.0542
     57 H21        -4.6346   -5.5864    6.9980 H         1 <0>         0.0463
     58 H22        -4.9491   -3.9359    6.4104 H         1 <0>         0.0540
     59 H23        -5.9545   -5.5595    4.8685 H         1 <0>         0.0443
     60 H24        -4.5918   -4.7431    4.0656 H         1 <0>         0.0717
     61 H25        -4.5492   -7.1528    3.8447 H         1 <0>         0.3733
     62 H26         0.2017   -4.4235   -1.4499 H         1 <0>         0.0678
     63 H27         1.0410   -2.9931   -2.0963 H         1 <0>         0.0702
     64 H28         2.8161   -4.7624   -3.0769 H         1 <0>         0.1178
     65 H29         1.4486   -6.3194   -4.2677 H         1 <0>         0.1056
     66 H30        -0.0277   -5.8106   -3.2376 H         1 <0>         0.1000
@<TRIPOS>BOND
     1    1    2 1
     2    1   38 1
     3    1   39 1
     4    1   40 1
     5    2    7 ar
     6    2    3 ar
     7    3    4 ar
     8    3   41 1
     9    4    5 ar
    10    4   34 1
    11    5    6 ar
    12    5   42 1
    13    6    7 ar
    14    6   43 1
    15    7    8 1
    16    8    9 2
    17    8   10 1
    18   10   15 1
    19   10   11 2
    20   11   12 1
    21   11   33 1
    22   12   13 2
    23   12   14 am
    24   14   15 1
    25   14   27 1
    26   15   16 1
    27   15   17 1
    28   17   22 ar
    29   17   18 ar
    30   18   19 ar
    31   18   44 1
    32   19   20 ar
    33   19   45 1
    34   20   21 ar
    35   20   25 1
    36   21   22 ar
    37   21   23 1
    38   22   46 1
    39   23   24 1
    40   24   47 1
    41   24   48 1
    42   24   49 1
    43   25   26 1
    44   26   50 1
    45   26   51 1
    46   26   52 1
    47   27   28 1
    48   27   53 1
    49   27   54 1
    50   28   29 1
    51   28   55 1
    52   28   56 1
    53   29   30 1
    54   30   31 1
    55   30   57 1
    56   30   58 1
    57   31   32 1
    58   31   59 1
    59   31   60 1
    60   32   61 1
    61   34   35 1
    62   35   36 1
    63   35   62 1
    64   35   63 1
    65   36   37 2
    66   36   64 1
    67   37   65 1
    68   37   66 1
@<TRIPOS>MOLECULE
ZINC40109143
   71    74     0     0     0
SMALL
USER_CHARGES

@<TRIPOS>ATOM
      1 C1         -1.4881    1.2105    0.9063 C.3       1 <0>        -0.1491
      2 C2         -1.2316   -0.2775    0.6594 C.3       1 <0>         0.0531
      3 O1         -0.3737   -0.7890    1.6814 O.3       1 <0>        -0.3088
      4 C3         -0.0448   -2.1066    1.6091 C.ar      1 <0>         0.0914
      5 C4         -0.5324   -2.8882    0.5740 C.ar      1 <0>        -0.1714
      6 C5         -0.1966   -4.2273    0.5018 C.ar      1 <0>        -0.0830
      7 C6          0.6249   -4.7898    1.4609 C.ar      1 <0>        -0.0696
      8 C7          1.1144   -4.0158    2.4965 C.ar      1 <0>        -0.1651
      9 C8          0.7867   -2.6715    2.5713 C.ar      1 <0>         0.0968
     10 O2          1.2722   -1.9072    3.5860 O.3       1 <0>        -0.3080
     11 C9          2.2012   -2.5268    4.4777 C.3       1 <0>         0.0534
     12 C10         2.6270   -1.5217    5.5498 C.3       1 <0>        -0.1490
     13 C11         0.9873   -6.2502    1.3776 C.3       1 <0>         0.2681
     14 H1          1.8042   -6.4730    2.0641 H         1 <0>         0.0657
     15 C12        -0.2153   -7.1035    1.7070 C.2       1 <0>        -0.5032
     16 C13        -0.4723   -7.8557    0.6113 C.2       1 <0>         0.2675
     17 C14         0.5164   -7.5358   -0.4401 C.2       1 <0>         0.5167
     18 O3          0.5511   -8.0446   -1.5428 O.2       1 <0>        -0.5222
     19 N1          1.3732   -6.5969    0.0048 N.am      1 <0>        -0.6097
     20 C15         2.4916   -6.0226   -0.7473 C.3       1 <0>         0.1369
     21 C16         3.7514   -6.8559   -0.5036 C.3       1 <0>         0.0587
     22 O4          3.5671   -8.1666   -1.0421 O.3       1 <0>        -0.5532
     23 O5         -1.4746   -8.7570    0.4967 O.3       1 <0>        -0.6525
     24 C17        -0.9598   -7.1149    2.9696 C.2       1 <0>         0.5017
     25 O6         -2.1253   -6.7666    2.9916 O.2       1 <0>        -0.4689
     26 C18        -0.2943   -7.5496    4.2164 C.ar      1 <0>        -0.0954
     27 C19         1.0070   -8.0557    4.1767 C.ar      1 <0>        -0.1012
     28 C20         1.6248   -8.4598    5.3419 C.ar      1 <0>        -0.0987
     29 C21         0.9597   -8.3657    6.5511 C.ar      1 <0>        -0.1964
     30 C22        -0.3341   -7.8644    6.6005 C.ar      1 <0>         0.1107
     31 C23        -0.9619   -7.4504    5.4379 C.ar      1 <0>        -0.1048
     32 O7         -0.9827   -7.7747    7.7915 O.3       1 <0>        -0.3093
     33 C24        -0.2730   -8.2141    8.9514 C.3       1 <0>         0.1026
     34 C25        -1.1440   -8.0408   10.1689 C.ar      1 <0>        -0.0989
     35 C26        -1.1136   -6.8540   10.8772 C.ar      1 <0>        -0.0904
     36 C27        -1.9125   -6.6950   11.9940 C.ar      1 <0>        -0.1252
     37 C28        -2.7422   -7.7225   12.4023 C.ar      1 <0>        -0.0792
     38 C29        -2.7733   -8.9089   11.6935 C.ar      1 <0>        -0.1248
     39 C30        -1.9776   -9.0664   10.5742 C.ar      1 <0>        -0.0901
     40 C31        -3.6125   -7.5495   13.6204 C.3       1 <0>        -0.1161
     41 H2         -0.5412    1.7501    0.8896 H         1 <0>         0.0636
     42 H3         -2.1424    1.6007    0.1267 H         1 <0>         0.0747
     43 H4         -1.9634    1.3408    1.8785 H         1 <0>         0.0647
     44 H5         -2.1785   -0.8171    0.6761 H         1 <0>         0.0602
     45 H6         -0.7562   -0.4078   -0.3128 H         1 <0>         0.0584
     46 H7         -1.1749   -2.4513   -0.1761 H         1 <0>         0.1299
     47 H8         -0.5773   -4.8354   -0.3055 H         1 <0>         0.1231
     48 H9          1.7557   -4.4578    3.2447 H         1 <0>         0.1310
     49 H10         1.7301   -3.3872    4.9529 H         1 <0>         0.0606
     50 H11         3.0776   -2.8550    3.9189 H         1 <0>         0.0584
     51 H12         3.0981   -0.6613    5.0746 H         1 <0>         0.0635
     52 H13         1.7506   -1.1934    6.1086 H         1 <0>         0.0645
     53 H14         3.3356   -1.9943    6.2300 H         1 <0>         0.0746
     54 H15         2.2539   -6.0260   -1.8111 H         1 <0>         0.0835
     55 H16         2.6639   -4.9983   -0.4168 H         1 <0>         0.0874
     56 H17         4.6022   -6.3793   -0.9907 H         1 <0>         0.0480
     57 H18         3.9388   -6.9263    0.5678 H         1 <0>         0.0454
     58 H19         4.3282   -8.7512   -0.9234 H         1 <0>         0.3696
     59 H20         1.5290   -8.1309    3.2343 H         1 <0>         0.1358
     60 H21         2.6308   -8.8513    5.3100 H         1 <0>         0.1245
     61 H22         1.4486   -8.6837    7.4601 H         1 <0>         0.1236
     62 H23        -1.9665   -7.0558    5.4758 H         1 <0>         0.1362
     63 H24        -0.0101   -9.2660    8.8396 H         1 <0>         0.0692
     64 H25         0.6353   -7.6229    9.0673 H         1 <0>         0.0689
     65 H26        -0.4654   -6.0513   10.5582 H         1 <0>         0.1245
     66 H27        -1.8883   -5.7681   12.5478 H         1 <0>         0.1236
     67 H28        -3.4213   -9.7118   12.0127 H         1 <0>         0.1239
     68 H29        -2.0046   -9.9919   10.0182 H         1 <0>         0.1251
     69 H30        -4.5755   -7.1345   13.3229 H         1 <0>         0.0718
     70 H31        -3.7658   -8.5173   14.0978 H         1 <0>         0.0664
     71 H32        -3.1256   -6.8716   14.3214 H         1 <0>         0.0663
@<TRIPOS>BOND
     1    1    2 1
     2    1   41 1
     3    1   42 1
     4    1   43 1
     5    2    3 1
     6    2   44 1
     7    2   45 1
     8    3    4 1
     9    4    9 ar
    10    4    5 ar
    11    5    6 ar
    12    5   46 1
    13    6    7 ar
    14    6   47 1
    15    7    8 ar
    16    7   13 1
    17    8    9 ar
    18    8   48 1
    19    9   10 1
    20   10   11 1
    21   11   12 1
    22   11   49 1
    23   11   50 1
    24   12   51 1
    25   12   52 1
    26   12   53 1
    27   13   14 1
    28   13   19 1
    29   13   15 1
    30   15   16 2
    31   15   24 1
    32   16   17 1
    33   16   23 1
    34   17   18 2
    35   17   19 am
    36   19   20 1
    37   20   21 1
    38   20   54 1
    39   20   55 1
    40   21   22 1
    41   21   56 1
    42   21   57 1
    43   22   58 1
    44   24   25 2
    45   24   26 1
    46   26   31 ar
    47   26   27 ar
    48   27   28 ar
    49   27   59 1
    50   28   29 ar
    51   28   60 1
    52   29   30 ar
    53   29   61 1
    54   30   31 ar
    55   30   32 1
    56   31   62 1
    57   32   33 1
    58   33   34 1
    59   33   63 1
    60   33   64 1
    61   34   39 ar
    62   34   35 ar
    63   35   36 ar
    64   35   65 1
    65   36   37 ar
    66   36   66 1
    67   37   38 ar
    68   37   40 1
    69   38   39 ar
    70   38   67 1
    71   39   68 1
    72   40   69 1
    73   40   70 1
    74   40   71 1
@<TRIPOS>MOLECULE
ZINC04245719
   69    72     0     0     0
SMALL
USER_CHARGES
(2R,3R,4S,5R)-4-benzyloxy-5-[(1R)-1,2-dibenzyloxyethyl]-2-ethoxy-tetrahydrofuran-3-ol
@<TRIPOS>ATOM
      1 C1          4.5526   -1.5592   -1.7629 C.3       1 <0>        -0.1523
      2 C2          3.6232   -0.4137   -2.1691 C.3       1 <0>         0.0561
      3 O1          2.9526    0.0890   -1.0116 O.3       1 <0>        -0.3672
      4 C3          2.0554    1.1677   -1.2823 C.3       1 <0>         0.2114
      5 H1          1.3585    0.8931   -2.0742 H         1 <0>         0.0844
      6 C4          1.2864    1.5618   -0.0018 C.3       1 <0>         0.0603
      7 H2          1.8473    1.2693    0.8858 H         1 <0>         0.0872
      8 C5          1.1719    3.1000   -0.0910 C.3       1 <0>         0.0823
      9 H3          1.6773    3.5702    0.7525 H         1 <0>         0.0870
     10 C6          1.8853    3.4534   -1.4148 C.3       1 <0>         0.0932
     11 H4          1.1623    3.5293   -2.2270 H         1 <0>         0.1004
     12 O2          2.7922    2.3542   -1.6501 O.3       1 <0>        -0.3753
     13 C7          2.6626    4.7630   -1.2679 C.3       1 <0>         0.1056
     14 H5          3.3696    4.6753   -0.4429 H         1 <0>         0.0784
     15 C8          3.4237    5.0524   -2.5632 C.3       1 <0>         0.0435
     16 O3          4.2404    6.2118   -2.3870 O.3       1 <0>        -0.3790
     17 C9          4.9976    6.5708   -3.5445 C.3       1 <0>         0.1043
     18 C10         5.8173    7.7999   -3.2471 C.ar      1 <0>        -0.0917
     19 C11         5.2937    9.0557   -3.4913 C.ar      1 <0>        -0.0986
     20 C12         6.0438   10.1832   -3.2140 C.ar      1 <0>        -0.1224
     21 C13         7.3214   10.0547   -2.7020 C.ar      1 <0>        -0.1131
     22 C14         7.8472    8.7988   -2.4632 C.ar      1 <0>        -0.1229
     23 C15         7.0951    7.6714   -2.7355 C.ar      1 <0>        -0.0990
     24 O4          1.7509    5.8309   -1.0024 O.3       1 <0>        -0.3563
     25 C16         2.3046    6.8852   -0.2126 C.3       1 <0>         0.1031
     26 C17         1.2618    7.9512    0.0043 C.ar      1 <0>        -0.0855
     27 C18         1.1489    8.9997   -0.8895 C.ar      1 <0>        -0.0938
     28 C19         0.1892    9.9750   -0.6931 C.ar      1 <0>        -0.1226
     29 C20        -0.6507    9.9075    0.4028 C.ar      1 <0>        -0.1131
     30 C21        -0.5343    8.8619    1.2994 C.ar      1 <0>        -0.1231
     31 C22         0.4220    7.8837    1.1002 C.ar      1 <0>        -0.1004
     32 O5         -0.1997    3.4981   -0.1396 O.3       1 <0>        -0.3355
     33 C23        -0.7731    3.7654    1.1417 C.3       1 <0>         0.1102
     34 C24        -2.2136    4.1743    0.9720 C.ar      1 <0>        -0.0889
     35 C25        -2.5391    5.5081    0.8109 C.ar      1 <0>        -0.0949
     36 C26        -3.8600    5.8826    0.6500 C.ar      1 <0>        -0.1244
     37 C27        -4.8564    4.9245    0.6614 C.ar      1 <0>        -0.1138
     38 C28        -4.5313    3.5912    0.8277 C.ar      1 <0>        -0.1266
     39 C29        -3.2099    3.2161    0.9829 C.ar      1 <0>        -0.0933
     40 O6         -0.0110    0.9628    0.0073 O.3       1 <0>        -0.5326
     41 H6          5.0640   -1.9426   -2.6458 H         1 <0>         0.0746
     42 H7          5.2885   -1.1935   -1.0468 H         1 <0>         0.0645
     43 H8          3.9673   -2.3576   -1.3067 H         1 <0>         0.0634
     44 H9          2.8872   -0.7795   -2.8852 H         1 <0>         0.0520
     45 H10         4.2085    0.3847   -2.6254 H         1 <0>         0.0596
     46 H11         4.0538    4.1987   -2.8129 H         1 <0>         0.0676
     47 H12         2.7130    5.2280   -3.3708 H         1 <0>         0.0605
     48 H13         5.6603    5.7486   -3.8145 H         1 <0>         0.0585
     49 H14         4.3195    6.7779   -4.3724 H         1 <0>         0.0588
     50 H15         4.2971    9.1560   -3.8951 H         1 <0>         0.1221
     51 H16         5.6331   11.1644   -3.4009 H         1 <0>         0.1238
     52 H17         7.9089   10.9355   -2.4889 H         1 <0>         0.1230
     53 H18         8.8455    8.6983   -2.0635 H         1 <0>         0.1237
     54 H19         7.5059    6.6901   -2.5490 H         1 <0>         0.1222
     55 H20         2.6241    6.4880    0.7509 H         1 <0>         0.0521
     56 H21         3.1618    7.3154   -0.7306 H         1 <0>         0.0782
     57 H22         1.8081    9.0548   -1.7432 H         1 <0>         0.1219
     58 H23         0.0985   10.7922   -1.3934 H         1 <0>         0.1223
     59 H24        -1.3976   10.6719    0.5586 H         1 <0>         0.1217
     60 H25        -1.1903    8.8093    2.1558 H         1 <0>         0.1226
     61 H26         0.5131    7.0670    1.8009 H         1 <0>         0.1185
     62 H27        -0.7203    2.8678    1.7578 H         1 <0>         0.0603
     63 H28        -0.2213    4.5712    1.6257 H         1 <0>         0.0531
     64 H29        -1.7611    6.2571    0.8068 H         1 <0>         0.1235
     65 H30        -4.1139    6.9242    0.5197 H         1 <0>         0.1215
     66 H31        -5.8888    5.2175    0.5401 H         1 <0>         0.1211
     67 H32        -5.3098    2.8426    0.8366 H         1 <0>         0.1220
     68 H33        -2.9560    2.1745    1.1132 H         1 <0>         0.1236
     69 H34         0.0021   -0.0041    0.0020 H         1 <0>         0.3825
@<TRIPOS>BOND
     1    1    2 1
     2    1   41 1
     3    1   42 1
     4    1   43 1
     5    2    3 1
     6    2   44 1
     7    2   45 1
     8    3    4 1
     9    4    5 1
    10    4   12 1
    11    4    6 1
    12    6    7 1
    13    6    8 1
    14    6   40 1
    15    8    9 1
    16    8   10 1
    17    8   32 1
    18   10   11 1
    19   10   12 1
    20   10   13 1
    21   13   14 1
    22   13   15 1
    23   13   24 1
    24   15   16 1
    25   15   46 1
    26   15   47 1
    27   16   17 1
    28   17   18 1
    29   17   48 1
    30   17   49 1
    31   18   23 ar
    32   18   19 ar
    33   19   20 ar
    34   19   50 1
    35   20   21 ar
    36   20   51 1
    37   21   22 ar
    38   21   52 1
    39   22   23 ar
    40   22   53 1
    41   23   54 1
    42   24   25 1
    43   25   26 1
    44   25   55 1
    45   25   56 1
    46   26   31 ar
    47   26   27 ar
    48   27   28 ar
    49   27   57 1
    50   28   29 ar
    51   28   58 1
    52   29   30 ar
    53   29   59 1
    54   30   31 ar
    55   30   60 1
    56   31   61 1
    57   32   33 1
    58   33   34 1
    59   33   62 1
    60   33   63 1
    61   34   39 ar
    62   34   35 ar
    63   35   36 ar
    64   35   64 1
    65   36   37 ar
    66   36   65 1
    67   37   38 ar
    68   37   66 1
    69   38   39 ar
    70   38   67 1
    71   39   68 1
    72   40   69 1
@<TRIPOS>MOLECULE
ZINC23021415
   63    65     0     0     0
SMALL
USER_CHARGES
2-(2-furylmethyl-(p-tolylsulfonyl)amino)-N-[3-[(1R)-1-phenylethoxy]propyl]acetamide
@<TRIPOS>ATOM
      1 C1         -9.4625   -9.3474   -7.7194 C.3       1 <0>        -0.1295
      2 C2         -8.1023   -9.0542   -7.1405 C.ar      1 <0>        -0.0262
      3 C3         -6.9673   -9.5415   -7.7611 C.ar      1 <0>        -0.1406
      4 C4         -5.7197   -9.2725   -7.2300 C.ar      1 <0>        -0.0161
      5 C5         -5.6071   -8.5155   -6.0788 C.ar      1 <0>        -0.6872
      6 C6         -6.7424   -8.0323   -5.4556 C.ar      1 <0>        -0.0177
      7 C7         -7.9898   -8.2976   -5.9891 C.ar      1 <0>        -0.1416
      8 S1         -4.0168   -8.1726   -5.4020 S.o2      1 <0>         2.6908
      9 O1         -3.1493   -9.1993   -5.8630 O.2       1 <0>        -0.9423
     10 O2         -4.2128   -7.9042   -4.0204 O.2       1 <0>        -0.9472
     11 N1         -3.4867   -6.7616   -6.0877 N.pl3     1 <0>        -0.9751
     12 C8         -2.7104   -6.7972   -7.3296 C.3       1 <0>         0.2054
     13 C9         -1.2394   -6.7708   -7.0035 C.2       1 <0>        -0.0308
     14 C10        -0.4604   -7.8474   -6.7951 C.2       1 <0>        -0.1810
     15 C11         0.8403   -7.3651   -6.5217 C.2       1 <0>        -0.2165
     16 C12         0.7783   -6.0227   -6.5795 C.2       1 <0>        -0.0277
     17 O3         -0.4825   -5.6685   -6.8773 O.3       1 <0>        -0.1667
     18 C13        -3.7939   -5.4778   -5.4525 C.3       1 <0>         0.1017
     19 C14        -2.6415   -5.0633   -4.5743 C.2       1 <0>         0.4950
     20 O4         -1.6602   -5.7707   -4.4875 O.2       1 <0>        -0.5113
     21 N2         -2.7014   -3.9065   -3.8852 N.am      1 <0>        -0.7415
     22 C15        -1.5811   -3.5036   -3.0315 C.3       1 <0>         0.1279
     23 C16        -1.9020   -2.1628   -2.3680 C.3       1 <0>        -0.1288
     24 C17        -0.7320   -1.7421   -1.4764 C.3       1 <0>         0.0647
     25 O5         -1.0317   -0.4897   -0.8568 O.3       1 <0>        -0.3814
     26 C18         0.0021   -0.0041    0.0020 C.3       1 <0>         0.1295
     27 H1          0.9494   -0.3731   -0.4181 H         1 <0>         0.0688
     28 C19        -0.2279   -0.5251    1.4221 C.3       1 <0>        -0.1697
     29 C20        -0.0184    1.5028    0.0103 C.ar      1 <0>        -0.0880
     30 C21        -1.2248    2.1776    0.0197 C.ar      1 <0>        -0.0922
     31 C22        -1.2435    3.5598    0.0318 C.ar      1 <0>        -0.1229
     32 C23        -0.0559    4.2672    0.0251 C.ar      1 <0>        -0.1181
     33 C24         1.1505    3.5924    0.0104 C.ar      1 <0>        -0.1210
     34 C25         1.1693    2.2102    0.0028 C.ar      1 <0>        -0.1121
     35 H2         -9.3506   -9.9577   -8.6277 H         1 <0>         0.0724
     36 H3         -9.9648   -8.4021   -7.9724 H         1 <0>         0.0794
     37 H4        -10.0648   -9.8964   -6.9806 H         1 <0>         0.0795
     38 H5         -7.0553  -10.1326   -8.6606 H         1 <0>         0.1346
     39 H6         -4.8329   -9.6535   -7.7147 H         1 <0>         0.1410
     40 H7         -6.6546   -7.4445   -4.5538 H         1 <0>         0.1392
     41 H8         -8.8765   -7.9166   -5.5044 H         1 <0>         0.1342
     42 H9         -2.9467   -7.7178   -7.8834 H         1 <0>         0.1158
     43 H10        -2.9650   -5.9227   -7.9464 H         1 <0>         0.1000
     44 H11        -0.7693   -8.8817   -6.8293 H         1 <0>         0.1519
     45 H12         1.7155   -7.9604   -6.3073 H         1 <0>         0.1428
     46 H13         1.6033   -5.3448   -6.4177 H         1 <0>         0.1945
     47 H14        -3.9569   -4.7148   -6.2279 H         1 <0>         0.1158
     48 H15        -4.7027   -5.5793   -4.8412 H         1 <0>         0.1135
     49 H16        -3.5915   -3.2649   -3.9638 H         1 <0>         0.4207
     50 H17        -1.4180   -4.2667   -2.2562 H         1 <0>         0.0674
     51 H18        -0.6723   -3.4020   -3.6428 H         1 <0>         0.0667
     52 H19        -2.0650   -1.3997   -3.1434 H         1 <0>         0.0789
     53 H20        -2.8108   -2.2644   -1.7567 H         1 <0>         0.0797
     54 H21        -0.5690   -2.5051   -0.7010 H         1 <0>         0.0535
     55 H22         0.1769   -1.6406   -2.0877 H         1 <0>         0.0526
     56 H23         0.5679   -0.1513    2.0832 H         1 <0>         0.0691
     57 H24        -0.2131   -1.6250    1.4160 H         1 <0>         0.0620
     58 H25        -1.2039   -0.1736    1.7880 H         1 <0>         0.0681
     59 H26        -2.1527    1.6249    0.0211 H         1 <0>         0.1260
     60 H27        -2.1860    4.0870    0.0436 H         1 <0>         0.1228
     61 H28        -0.0705    5.3471    0.0318 H         1 <0>         0.1221
     62 H29         2.0784    4.1450    0.0052 H         1 <0>         0.1234
     63 H30         2.1118    1.6830   -0.0087 H         1 <0>         0.1214
@<TRIPOS>BOND
     1    1    2 1
     2    1   35 1
     3    1   36 1
     4    1   37 1
     5    2    7 ar
     6    2    3 ar
     7    3    4 ar
     8    3   38 1
     9    4    5 ar
    10    4   39 1
    11    5    6 ar
    12    5    8 1
    13    6    7 ar
    14    6   40 1
    15    7   41 1
    16    8    9 2
    17    8   10 2
    18    8   11 1
    19   11   12 1
    20   11   18 1
    21   12   13 1
    22   12   42 1
    23   12   43 1
    24   13   17 1
    25   13   14 2
    26   14   15 1
    27   14   44 1
    28   15   16 2
    29   15   45 1
    30   16   17 1
    31   16   46 1
    32   18   19 1
    33   18   47 1
    34   18   48 1
    35   19   20 2
    36   19   21 am
    37   21   22 1
    38   21   49 1
    39   22   23 1
    40   22   50 1
    41   22   51 1
    42   23   24 1
    43   23   52 1
    44   23   53 1
    45   24   25 1
    46   24   54 1
    47   24   55 1
    48   25   26 1
    49   26   27 1
    50   26   28 1
    51   26   29 1
    52   28   56 1
    53   28   57 1
    54   28   58 1
    55   29   34 ar
    56   29   30 ar
    57   30   31 ar
    58   30   59 1
    59   31   32 ar
    60   31   60 1
    61   32   33 ar
    62   32   61 1
    63   33   34 ar
    64   33   62 1
    65   34   63 1
@<TRIPOS>MOLECULE
ZINC35869550
   70    71     0     0     0
SMALL
USER_CHARGES

@<TRIPOS>ATOM
      1 C1         -0.5994    1.7200   -0.7154 C.3       1 <0>        -0.1532
      2 C2         -0.9730    0.6778   -1.7714 C.3       1 <0>         0.0634
      3 O1          0.1549   -0.1592   -2.0346 O.3       1 <0>        -0.3593
      4 C3         -0.0085   -1.1372   -2.9488 C.2       1 <0>         0.5364
      5 O2         -1.0800   -1.2749   -3.5069 O.2       1 <0>        -0.4911
      6 C4          1.1063   -2.0346   -3.2697 C.2       1 <0>        -0.0466
      7 C5          1.0744   -3.0545   -4.1739 C.2       1 <0>        -0.0139
      8 C6          2.3562   -3.6544   -4.1655 C.2       1 <0>        -0.2596
      9 C7          3.1220   -2.9605   -3.2412 C.2       1 <0>         0.1186
     10 N1          2.3667   -1.9868   -2.7127 N.pl3     1 <0>        -0.5124
     11 H1          2.6600   -1.3505   -2.0419 H         1 <0>         0.4284
     12 C8          4.5600   -3.2480   -2.8939 C.3       1 <0>        -0.1117
     13 C9          2.7915   -4.7937   -4.9793 C.2       1 <0>         0.4285
     14 O3          2.6036   -5.9263   -4.5871 O.2       1 <0>        -0.4223
     15 C10         3.4722   -4.5578   -6.3030 C.3       1 <0>         0.1049
     16 H2          4.2410   -3.7942   -6.1852 H         1 <0>         0.1297
     17 C11         2.4404   -4.0884   -7.3306 C.3       1 <0>        -0.1545
     18 N2          4.0886   -5.8043   -6.7641 N.pl3     1 <0>        -0.9778
     19 C12         3.2476   -6.9523   -7.1120 C.3       1 <0>         0.1260
     20 C13         2.7943   -6.8298   -8.5682 C.3       1 <0>         0.0247
     21 O4          3.9301   -6.9245   -9.4302 O.3       1 <0>        -0.3696
     22 C14         3.6150   -6.8216  -10.8202 C.3       1 <0>         0.0292
     23 S1          5.7359   -5.9155   -6.8921 S.o2      1 <0>         2.6839
     24 O5          6.0013   -6.9395   -7.8409 O.2       1 <0>        -0.9218
     25 O6          6.2217   -4.5891   -7.0467 O.2       1 <0>        -0.9584
     26 C15         6.3408   -6.4959   -5.3423 C.ar      1 <0>        -0.6835
     27 C16         6.6787   -5.5940   -4.3506 C.ar      1 <0>        -0.0250
     28 C17         7.1532   -6.0494   -3.1347 C.ar      1 <0>        -0.1369
     29 C18         7.2895   -7.4066   -2.9104 C.ar      1 <0>        -0.0122
     30 C19         6.9507   -8.3084   -3.9017 C.ar      1 <0>        -0.1398
     31 C20         6.4721   -7.8533   -5.1160 C.ar      1 <0>        -0.0115
     32 C21         7.8078   -7.9029   -1.5852 C.3       1 <0>        -0.0382
     33 C22         6.8761   -7.4348   -0.4655 C.3       1 <0>        -0.1395
     34 C23         7.8609   -9.4319   -1.5987 C.3       1 <0>        -0.1481
     35 C24         9.2126   -7.3459   -1.3460 C.3       1 <0>        -0.1405
     36 C25        -0.1023   -3.4653   -5.0210 C.3       1 <0>        -0.1027
     37 H3         -0.2993    1.2154    0.2029 H         1 <0>         0.0665
     38 H4          0.2271    2.3288   -1.0822 H         1 <0>         0.0669
     39 H5         -1.4597    2.3585   -0.5147 H         1 <0>         0.0827
     40 H6         -1.7995    0.0691   -1.4046 H         1 <0>         0.0705
     41 H7         -1.2731    1.1825   -2.6897 H         1 <0>         0.0710
     42 H8          5.2130   -2.6272   -3.5074 H         1 <0>         0.0923
     43 H9          4.7310   -3.0250   -1.8407 H         1 <0>         0.0828
     44 H10         4.7761   -4.2996   -3.0824 H         1 <0>         0.0881
     45 H11         1.6141   -4.7983   -7.3661 H         1 <0>         0.0693
     46 H12         2.0637   -3.1063   -7.0447 H         1 <0>         0.0800
     47 H13         2.9084   -4.0262   -8.3130 H         1 <0>         0.0801
     48 H14         3.8182   -7.8723   -6.9853 H         1 <0>         0.0915
     49 H15         2.3743   -6.9738   -6.4602 H         1 <0>         0.1070
     50 H16         2.0945   -7.6327   -8.7997 H         1 <0>         0.0596
     51 H17         2.3049   -5.8672   -8.7166 H         1 <0>         0.0628
     52 H18         2.9322   -7.6244  -11.0984 H         1 <0>         0.0399
     53 H19         3.1425   -5.8588  -11.0153 H         1 <0>         0.0378
     54 H20         4.5298   -6.9030  -11.4072 H         1 <0>         0.0861
     55 H21         6.5722   -4.5337   -4.5259 H         1 <0>         0.1349
     56 H22         7.4179   -5.3447   -2.3602 H         1 <0>         0.1307
     57 H23         7.0575   -9.3688   -3.7265 H         1 <0>         0.1369
     58 H24         6.2039   -8.5580   -5.8892 H         1 <0>         0.1394
     59 H25         5.8753   -7.8317   -0.6359 H         1 <0>         0.0585
     60 H26         7.2510   -7.7938    0.4930 H         1 <0>         0.0630
     61 H27         6.8382   -6.3455   -0.4559 H         1 <0>         0.0581
     62 H28         8.5247   -9.7654   -2.3964 H         1 <0>         0.0612
     63 H29         8.2358   -9.7909   -0.6402 H         1 <0>         0.0625
     64 H30         6.8602   -9.8288   -1.7691 H         1 <0>         0.0611
     65 H31         9.1747   -6.2566   -1.3364 H         1 <0>         0.0589
     66 H32         9.5875   -7.7049   -0.3875 H         1 <0>         0.0633
     67 H33         9.8763   -7.6793   -2.1437 H         1 <0>         0.0587
     68 H34        -0.0793   -2.9194   -5.9641 H         1 <0>         0.0789
     69 H35        -0.0509   -4.5359   -5.2195 H         1 <0>         0.0677
     70 H36        -1.0278   -3.2379   -4.4920 H         1 <0>         0.0877
@<TRIPOS>BOND
     1    1    2 1
     2    1   37 1
     3    1   38 1
     4    1   39 1
     5    2    3 1
     6    2   40 1
     7    2   41 1
     8    3    4 1
     9    4    5 2
    10    4    6 1
    11    6   10 1
    12    6    7 2
    13    7    8 1
    14    7   36 1
    15    8    9 2
    16    8   13 1
    17    9   10 1
    18    9   12 1
    19   10   11 1
    20   12   42 1
    21   12   43 1
    22   12   44 1
    23   13   14 2
    24   13   15 1
    25   15   16 1
    26   15   17 1
    27   15   18 1
    28   17   45 1
    29   17   46 1
    30   17   47 1
    31   18   19 1
    32   18   23 1
    33   19   20 1
    34   19   48 1
    35   19   49 1
    36   20   21 1
    37   20   50 1
    38   20   51 1
    39   21   22 1
    40   22   52 1
    41   22   53 1
    42   22   54 1
    43   23   24 2
    44   23   25 2
    45   23   26 1
    46   26   31 ar
    47   26   27 ar
    48   27   28 ar
    49   27   55 1
    50   28   29 ar
    51   28   56 1
    52   29   30 ar
    53   29   32 1
    54   30   31 ar
    55   30   57 1
    56   31   58 1
    57   32   33 1
    58   32   34 1
    59   32   35 1
    60   33   59 1
    61   33   60 1
    62   33   61 1
    63   34   62 1
    64   34   63 1
    65   34   64 1
    66   35   65 1
    67   35   66 1
    68   35   67 1
    69   36   68 1
    70   36   69 1
    71   36   70 1
@<TRIPOS>MOLECULE
ZINC36561314
   75    76     0     0     0
SMALL
USER_CHARGES

@<TRIPOS>ATOM
      1 C1          1.3588   -1.7397   -0.2534 C.3       1 <0>        -0.1439
      2 C2         -0.1028   -2.1896   -0.2078 C.3       1 <0>        -0.1251
      3 C3         -0.8995   -1.2445    0.6938 C.3       1 <0>         0.0734
      4 N1         -2.3054   -1.6557    0.7113 N.am      1 <0>        -0.5940
      5 C4         -2.7807   -2.5968    1.7285 C.3       1 <0>         0.1651
      6 H1         -3.3398   -3.3996    1.2478 H         1 <0>         0.1180
      7 C5         -3.6758   -1.8744    2.7022 C.ar      1 <0>        -0.0452
      8 C6         -3.3615   -0.5911    3.1086 C.ar      1 <0>        -0.0933
      9 C7         -4.1825    0.0716    4.0017 C.ar      1 <0>        -0.0485
     10 C8         -5.3181   -0.5489    4.4880 C.ar      1 <0>        -0.0410
     11 C9         -5.6328   -1.8319    4.0809 C.ar      1 <0>        -0.0481
     12 C10        -4.8141   -2.4929    3.1845 C.ar      1 <0>        -0.1038
     13 N2         -6.1967    0.1603    5.4451 N.pl3     1 <0>         0.0325
     14 O1         -5.9212    1.2823    5.8015 O.2       1 <0>        -0.1553
     15 O2         -7.1898   -0.3823    5.8705 O.3       1 <0>        -0.1549
     16 C11        -1.6016   -3.1775    2.4658 C.2       1 <0>         0.5139
     17 O3         -0.4810   -2.7807    2.2255 O.2       1 <0>        -0.4999
     18 N3         -1.7923   -4.1377    3.3921 N.am      1 <0>        -0.7134
     19 C12        -0.6461   -4.7021    4.1088 C.3       1 <0>         0.1779
     20 C13         0.1801   -5.5635    3.1515 C.3       1 <0>        -0.1602
     21 C14         0.2238   -3.5675    4.6537 C.3       1 <0>        -0.1996
     22 C15        -1.1449   -5.5649    5.2697 C.3       1 <0>        -0.1169
     23 C16        -2.2834   -4.8405    5.9909 C.3       1 <0>        -0.0675
     24 C17        -3.6009   -5.1061    5.2598 C.3       1 <0>        -0.1595
     25 C18        -2.3852   -5.3545    7.4284 C.3       1 <0>        -0.1421
     26 C19        -2.0026   -3.3366    6.0057 C.3       1 <0>        -0.1668
     27 C20        -3.1616   -1.1683   -0.2084 C.2       1 <0>         0.5019
     28 O4         -4.3102   -1.5569   -0.2336 O.2       1 <0>        -0.5098
     29 C21        -2.6918   -0.1405   -1.2053 C.3       1 <0>         0.1216
     30 H2         -1.6340   -0.2965   -1.4168 H         1 <0>         0.0926
     31 C22        -2.8918    1.2402   -0.6354 C.ar      1 <0>        -0.0933
     32 C23        -4.1620    1.6745   -0.3057 C.ar      1 <0>        -0.0832
     33 C24        -4.3454    2.9410    0.2171 C.ar      1 <0>        -0.1210
     34 C25        -3.2586    3.7730    0.4105 C.ar      1 <0>        -0.1059
     35 C26        -1.9882    3.3383    0.0816 C.ar      1 <0>        -0.1203
     36 C27        -1.8043    2.0703   -0.4371 C.ar      1 <0>        -0.1015
     37 O5         -3.4435   -0.2705   -2.4136 O.3       1 <0>        -0.3504
     38 C28        -2.8673   -1.1703   -3.3626 C.3       1 <0>         0.0252
     39 H3          1.9264   -2.4130   -0.8958 H         1 <0>         0.0532
     40 H4          1.4147   -0.7260   -0.6501 H         1 <0>         0.0496
     41 H5          1.7767   -1.7595    0.7531 H         1 <0>         0.0617
     42 H6         -0.5206   -2.1698   -1.2143 H         1 <0>         0.0442
     43 H7         -0.1587   -3.2033    0.1889 H         1 <0>         0.0725
     44 H8         -0.4971   -1.2828    1.7061 H         1 <0>         0.1463
     45 H9         -0.8233   -0.2268    0.3108 H         1 <0>         0.0622
     46 H10        -2.4744   -0.1063    2.7287 H         1 <0>         0.1447
     47 H11        -3.9366    1.0740    4.3198 H         1 <0>         0.1549
     48 H12        -6.5198   -2.3168    4.4611 H         1 <0>         0.1572
     49 H13        -5.0620   -3.4939    2.8635 H         1 <0>         0.1472
     50 H14        -2.6886   -4.4550    3.5842 H         1 <0>         0.4036
     51 H15         0.6107   -4.9321    2.3743 H         1 <0>         0.0704
     52 H16         0.9802   -6.0558    3.7043 H         1 <0>         0.0664
     53 H17        -0.4619   -6.3162    2.6940 H         1 <0>         0.0548
     54 H18        -0.4047   -2.8476    5.1780 H         1 <0>         0.0915
     55 H19         0.9625   -3.9752    5.3436 H         1 <0>         0.0594
     56 H20         0.7331   -3.0713    3.8275 H         1 <0>         0.0827
     57 H21        -1.5071   -6.5181    4.8845 H         1 <0>         0.0715
     58 H22        -0.3271   -5.7423    5.9681 H         1 <0>         0.0835
     59 H23        -3.5894   -6.1140    4.8449 H         1 <0>         0.0637
     60 H24        -4.4307   -5.0110    5.9602 H         1 <0>         0.0675
     61 H25        -3.7213   -4.3826    4.4535 H         1 <0>         0.0551
     62 H26        -1.4465   -5.1653    7.9492 H         1 <0>         0.0570
     63 H27        -3.1962   -4.8385    7.9422 H         1 <0>         0.0568
     64 H28        -2.5853   -6.4259    7.4178 H         1 <0>         0.0569
     65 H29        -2.1014   -2.9386    4.9958 H         1 <0>         0.0695
     66 H30        -2.7162   -2.8402    6.6633 H         1 <0>         0.0468
     67 H31        -0.9901   -3.1596    6.3686 H         1 <0>         0.0763
     68 H32        -5.0111    1.0245   -0.4568 H         1 <0>         0.1273
     69 H33        -5.3379    3.2806    0.4740 H         1 <0>         0.1248
     70 H34        -3.4020    4.7627    0.8183 H         1 <0>         0.1257
     71 H35        -1.1391    3.9885    0.2325 H         1 <0>         0.1275
     72 H36        -0.8114    1.7293   -0.6906 H         1 <0>         0.1243
     73 H37        -1.8729   -0.8194   -3.6386 H         1 <0>         0.0475
     74 H38        -2.7925   -2.1643   -2.9218 H         1 <0>         0.0420
     75 H39        -3.4970   -1.2133   -4.2513 H         1 <0>         0.0958
@<TRIPOS>BOND
     1    1    2 1
     2    1   39 1
     3    1   40 1
     4    1   41 1
     5    2    3 1
     6    2   42 1
     7    2   43 1
     8    3    4 1
     9    3   44 1
    10    3   45 1
    11    4    5 1
    12    4   27 am
    13    5    6 1
    14    5    7 1
    15    5   16 1
    16    7   12 ar
    17    7    8 ar
    18    8    9 ar
    19    8   46 1
    20    9   10 ar
    21    9   47 1
    22   10   11 ar
    23   10   13 1
    24   11   12 ar
    25   11   48 1
    26   12   49 1
    27   13   14 2
    28   13   15 1
    29   16   17 2
    30   16   18 am
    31   18   19 1
    32   18   50 1
    33   19   20 1
    34   19   21 1
    35   19   22 1
    36   20   51 1
    37   20   52 1
    38   20   53 1
    39   21   54 1
    40   21   55 1
    41   21   56 1
    42   22   23 1
    43   22   57 1
    44   22   58 1
    45   23   24 1
    46   23   25 1
    47   23   26 1
    48   24   59 1
    49   24   60 1
    50   24   61 1
    51   25   62 1
    52   25   63 1
    53   25   64 1
    54   26   65 1
    55   26   66 1
    56   26   67 1
    57   27   28 2
    58   27   29 1
    59   29   30 1
    60   29   31 1
    61   29   37 1
    62   31   36 ar
    63   31   32 ar
    64   32   33 ar
    65   32   68 1
    66   33   34 ar
    67   33   69 1
    68   34   35 ar
    69   34   70 1
    70   35   36 ar
    71   35   71 1
    72   36   72 1
    73   37   38 1
    74   38   73 1
    75   38   74 1
    76   38   75 1
@<TRIPOS>MOLECULE
ZINC59059805
   63    65     0     0     0
SMALL
USER_CHARGES

@<TRIPOS>ATOM
      1 C1         -1.7932    1.7255    0.8840 C.3       1 <0>        -0.1531
      2 C2         -2.1071    0.2335    1.0126 C.3       1 <0>         0.0535
      3 O1         -1.3329   -0.4998    0.0613 O.3       1 <0>        -0.3156
      4 C3         -1.4941   -1.8499    0.0435 C.ar      1 <0>         0.1383
      5 C4         -2.3837   -2.4534    0.9202 C.ar      1 <0>        -0.2000
      6 C5         -2.5480   -3.8244    0.9026 C.ar      1 <0>        -0.0260
      7 C6         -1.8228   -4.5988    0.0069 C.ar      1 <0>         0.0844
      8 C7         -0.9329   -3.9939   -0.8706 C.ar      1 <0>        -0.0823
      9 C8         -0.7732   -2.6223   -0.8552 C.ar      1 <0>        -0.1479
     10 N1         -1.9886   -5.9898   -0.0111 N.pl3     1 <0>        -0.6285
     11 C9         -3.2220   -6.5229    0.0944 C.2       1 <0>         0.5625
     12 S1         -4.5970   -5.5031    0.1072 S.2       1 <0>        -0.6189
     13 N2         -3.3728   -7.8588    0.1897 N.pl3     1 <0>        -0.5528
     14 C10        -2.1961   -8.7314    0.1788 C.3       1 <0>         0.1379
     15 C11        -1.7113   -8.9388    1.5905 C.ar      1 <0>        -0.1581
     16 C12        -0.7831   -8.0712    2.1359 C.ar      1 <0>        -0.0633
     17 C13        -0.3367   -8.2594    3.4296 C.ar      1 <0>        -0.1468
     18 C14        -0.8210   -9.3196    4.1819 C.ar      1 <0>         0.1414
     19 C15        -1.7526  -10.1885    3.6326 C.ar      1 <0>        -0.2058
     20 C16        -2.1997   -9.9929    2.3401 C.ar      1 <0>        -0.0556
     21 O2         -0.3831   -9.5071    5.4547 O.3       1 <0>        -0.3148
     22 C17        -0.9249  -10.6193    6.1700 C.3       1 <0>         0.0253
     23 C18        -4.7134   -8.4382    0.3044 C.3       1 <0>         0.1579
     24 C19        -5.2545   -8.7288   -1.0718 C.ar      1 <0>        -0.1162
     25 C20        -5.9754   -7.7620   -1.7478 C.ar      1 <0>        -0.0789
     26 C21        -6.4738   -8.0237   -3.0104 C.ar      1 <0>        -0.1782
     27 C22        -6.2508   -9.2570   -3.6013 C.ar      1 <0>         0.1097
     28 C23        -5.5248  -10.2299   -2.9212 C.ar      1 <0>         0.0893
     29 C24        -5.0239   -9.9594   -1.6578 C.ar      1 <0>        -0.1586
     30 O3         -5.3033  -11.4419   -3.4970 O.3       1 <0>        -0.3066
     31 C25        -4.5501  -12.3917   -2.7403 C.3       1 <0>         0.0274
     32 O4         -6.7408   -9.5162   -4.8432 O.3       1 <0>        -0.3074
     33 C26        -7.4770   -8.4708   -5.4813 C.3       1 <0>         0.0255
     34 H1         -2.3837    2.2848    1.6096 H         1 <0>         0.0790
     35 H2         -0.7327    1.8913    1.0735 H         1 <0>         0.0661
     36 H3         -2.0396    2.0632   -0.1226 H         1 <0>         0.0666
     37 H4         -1.8607   -0.1042    2.0192 H         1 <0>         0.0629
     38 H5         -3.1676    0.0677    0.8231 H         1 <0>         0.0643
     39 H6         -2.9478   -1.8510    1.6168 H         1 <0>         0.1320
     40 H7         -3.2401   -4.2943    1.5857 H         1 <0>         0.1450
     41 H8         -0.3685   -4.5957   -1.5676 H         1 <0>         0.1291
     42 H9         -0.0840   -2.1513   -1.5405 H         1 <0>         0.1349
     43 H10        -1.2157   -6.5693   -0.0995 H         1 <0>         0.4020
     44 H11        -2.4614   -9.6936   -0.2593 H         1 <0>         0.1041
     45 H12        -1.4060   -8.2686   -0.4124 H         1 <0>         0.0851
     46 H13        -0.4064   -7.2459    1.5498 H         1 <0>         0.1218
     47 H14         0.3889   -7.5818    3.8549 H         1 <0>         0.1349
     48 H15        -2.1311  -11.0147    4.2162 H         1 <0>         0.1327
     49 H16        -2.9283  -10.6664    1.9135 H         1 <0>         0.1267
     50 H17        -0.6887  -11.5420    5.6401 H         1 <0>         0.0577
     51 H18        -0.4925  -10.6537    7.1699 H         1 <0>         0.1037
     52 H19        -2.0068  -10.5104    6.2455 H         1 <0>         0.0579
     53 H20        -4.6613   -9.3641    0.8773 H         1 <0>         0.0911
     54 H21        -5.3717   -7.7333    0.8122 H         1 <0>         0.1233
     55 H22        -6.1499   -6.8003   -1.2882 H         1 <0>         0.1561
     56 H23        -7.0373   -7.2670   -3.5360 H         1 <0>         0.1359
     57 H24        -4.4569  -10.7115   -1.1293 H         1 <0>         0.1301
     58 H25        -3.5620  -11.9842   -2.5262 H         1 <0>         0.0513
     59 H26        -5.0669  -12.6023   -1.8040 H         1 <0>         0.0539
     60 H27        -4.4467  -13.3130   -3.3135 H         1 <0>         0.1006
     61 H28        -7.8100   -8.8078   -6.4630 H         1 <0>         0.1012
     62 H29        -8.3436   -8.2127   -4.8726 H         1 <0>         0.0565
     63 H30        -6.8390   -7.5944   -5.5953 H         1 <0>         0.0556
@<TRIPOS>BOND
     1    1    2 1
     2    1   34 1
     3    1   35 1
     4    1   36 1
     5    2    3 1
     6    2   37 1
     7    2   38 1
     8    3    4 1
     9    4    9 ar
    10    4    5 ar
    11    5    6 ar
    12    5   39 1
    13    6    7 ar
    14    6   40 1
    15    7    8 ar
    16    7   10 1
    17    8    9 ar
    18    8   41 1
    19    9   42 1
    20   10   11 1
    21   10   43 1
    22   11   12 2
    23   11   13 1
    24   13   14 1
    25   13   23 1
    26   14   15 1
    27   14   44 1
    28   14   45 1
    29   15   20 ar
    30   15   16 ar
    31   16   17 ar
    32   16   46 1
    33   17   18 ar
    34   17   47 1
    35   18   19 ar
    36   18   21 1
    37   19   20 ar
    38   19   48 1
    39   20   49 1
    40   21   22 1
    41   22   50 1
    42   22   51 1
    43   22   52 1
    44   23   24 1
    45   23   53 1
    46   23   54 1
    47   24   29 ar
    48   24   25 ar
    49   25   26 ar
    50   25   55 1
    51   26   27 ar
    52   26   56 1
    53   27   28 ar
    54   27   32 1
    55   28   29 ar
    56   28   30 1
    57   29   57 1
    58   30   31 1
    59   31   58 1
    60   31   59 1
    61   31   60 1
    62   32   33 1
    63   33   61 1
    64   33   62 1
    65   33   63 1
@<TRIPOS>MOLECULE
ZINC28356495
   44    47     0     0     0
SMALL
USER_CHARGES
(E)-2-(5,6-dimethyl-4-oxo-3H-thieno[2,3-d]pyrimidin-2-yl)-3-[5-[3-(trifluoromethyl)phenyl]-2-furyl]prop-2-enenitrile
@<TRIPOS>ATOM
      1 C1          7.5742   13.0624    0.0104 C.3       1 <0>        -0.0882
      2 C2          6.0681   13.0132    0.0229 C.2       1 <0>        -0.0309
      3 C3          5.3517   14.1487    0.0358 C.2       1 <0>        -0.2168
      4 S1          3.6643   13.5736    0.0474 S.3       1 <0>         0.0190
      5 C4          3.9693   11.8253    0.0345 C.ar      1 <0>         0.1648
      6 C5          5.3756   11.7379    0.0216 C.ar      1 <0>        -0.3272
      7 C6          5.9186   10.4127    0.0086 C.ar      1 <0>         0.5273
      8 O1          7.1252   10.2401   -0.0027 O.3       1 <0>        -0.5882
      9 N1          5.0797    9.3605    0.0147 N.ar      1 <0>        -0.6417
     10 C7          3.7207    9.5373    0.0225 C.ar      1 <0>         0.3984
     11 N2          3.1966   10.7489    0.0346 N.ar      1 <0>        -0.5729
     12 C8          2.8365    8.3643    0.0235 C.2       1 <0>         0.0395
     13 C9          1.4611    8.5333    0.0371 C.2       1 <0>         0.0014
     14 C10         0.6147    7.4105    0.0381 C.2       1 <0>         0.0140
     15 C11        -0.7714    7.4370    0.0509 C.2       1 <0>        -0.1596
     16 C12        -1.2000    6.1093    0.0469 C.2       1 <0>        -0.1817
     17 C13        -0.0702    5.3206    0.0318 C.2       1 <0>         0.0285
     18 O2          1.0112    6.1200    0.0321 O.3       1 <0>        -0.1510
     19 C14        -0.0502    3.8452    0.0232 C.ar      1 <0>        -0.0137
     20 C15        -1.2488    3.1267    0.0308 C.ar      1 <0>        -0.0673
     21 C16        -1.2224    1.7481    0.0174 C.ar      1 <0>        -0.1166
     22 C17        -0.0126    1.0758    0.0080 C.ar      1 <0>        -0.0699
     23 C18         1.1782    1.7806    0.0004 C.ar      1 <0>        -0.1773
     24 C19         1.1672    3.1598    0.0079 C.ar      1 <0>        -0.0507
     25 C20         2.4902    1.0394   -0.0156 C.3       1 <0>         0.5083
     26 F1          2.2475   -0.3384   -0.0203 F         1 <0>        -0.1785
     27 F2          3.2099    1.3900   -1.1629 F         1 <0>        -0.1722
     28 F3          3.2313    1.3785    1.1215 F         1 <0>        -0.1723
     29 C21         3.3958    7.0460    0.0105 C.1       1 <0>         0.2706
     30 N3          3.8394    6.0003    0.0001 N.1       1 <0>        -0.4092
     31 C22         5.8539   15.5696    0.0397 C.3       1 <0>        -0.0500
     32 H1          7.9068   14.1109    0.0135 H         1 <0>         0.0504
     33 H2          7.9499   12.5612   -0.8938 H         1 <0>         0.0673
     34 H3          7.9652   12.5511    0.9024 H         1 <0>         0.0673
     35 H4          1.0315    9.5459    0.0471 H         1 <0>         0.1923
     36 H5         -1.3987    8.3162    0.0616 H         1 <0>         0.1645
     37 H6         -2.2236    5.7649    0.0538 H         1 <0>         0.1567
     38 H7         -2.1935    3.6500    0.0426 H         1 <0>         0.1401
     39 H8         -2.1480    1.1916    0.0187 H         1 <0>         0.1420
     40 H9          0.0021   -0.0041    0.0020 H         1 <0>         0.1415
     41 H10         2.0973    3.7086    0.0016 H         1 <0>         0.1445
     42 H11         4.9983   16.2608    0.0512 H         1 <0>         0.0632
     43 H12         6.4571   15.7478   -0.8627 H         1 <0>         0.0672
     44 H13         6.4728   15.7373    0.9335 H         1 <0>         0.0672
@<TRIPOS>BOND
     1    1    2 1
     2    1   32 1
     3    1   33 1
     4    1   34 1
     5    2    6 1
     6    2    3 2
     7    3    4 1
     8    3   31 1
     9    4    5 1
    10    5   11 ar
    11    5    6 ar
    12    6    7 ar
    13    7    8 1
    14    7    9 ar
    15    9   10 ar
    16   10   11 ar
    17   10   12 1
    18   12   13 2
    19   12   29 1
    20   13   14 1
    21   13   35 1
    22   14   18 1
    23   14   15 2
    24   15   16 1
    25   15   36 1
    26   16   17 2
    27   16   37 1
    28   17   18 1
    29   17   19 1
    30   19   24 ar
    31   19   20 ar
    32   20   21 ar
    33   20   38 1
    34   21   22 ar
    35   21   39 1
    36   22   23 ar
    37   22   40 1
    38   23   24 ar
    39   23   25 1
    40   24   41 1
    41   25   26 1
    42   25   27 1
    43   25   28 1
    44   29   30 3
    45   31   42 1
    46   31   43 1
    47   31   44 1
@<TRIPOS>MOLECULE
ZINC33555387
   42    46     0     0     0
SMALL
USER_CHARGES
(4Z,5R)-4-[(4-chlorophenyl)-hydroxy-methylene]-1-(6-fluoro-1,3-benzothiazol-2-yl)-5-(2-thienyl)pyrrolidine-2,3-dione
@<TRIPOS>ATOM
      1 C1          0.7889    5.6913   -3.7648 C.2       1 <0>        -0.1433
      2 C2          0.8228    5.3102   -2.4365 C.2       1 <0>        -0.1506
      3 C3          0.5236    4.0284   -2.1127 C.2       1 <0>        -0.1130
      4 S1          0.1663    3.3175   -3.7108 S.3       1 <0>         0.0336
      5 C4          0.4470    4.7749   -4.7031 C.2       1 <0>        -0.1915
      6 C5          0.4938    3.3748   -0.7551 C.3       1 <0>         0.3043
      7 H1          1.0821    3.9903   -0.0586 H         1 <0>         0.1011
      8 C6         -0.9352    3.2062   -0.2932 C.2       1 <0>        -0.4945
      9 C7         -1.8596    4.2070   -0.0748 C.2       1 <0>         0.3951
     10 C8         -1.4561    5.6193   -0.1858 C.ar      1 <0>        -0.0647
     11 C9         -0.2942    6.0701    0.4495 C.ar      1 <0>        -0.0890
     12 C10         0.0803    7.3916    0.3366 C.ar      1 <0>        -0.1165
     13 C11        -0.6971    8.2755   -0.3946 C.ar      1 <0>        -0.0340
     14 C12        -1.8524    7.8370   -1.0219 C.ar      1 <0>        -0.1130
     15 C13        -2.2360    6.5171   -0.9223 C.ar      1 <0>        -0.0701
     16 Cl1        -0.2218    9.9400   -0.5250 Cl        1 <0>        -0.0842
     17 O1         -3.1339    3.8918    0.2407 O.2       1 <0>        -0.5924
     18 C14        -1.1324    1.8251   -0.1311 C.2       1 <0>         0.3908
     19 O2         -2.1641    1.2883    0.2299 O.3       1 <0>        -0.4543
     20 C15         0.1372    1.1319   -0.4768 C.2       1 <0>         0.4798
     21 O3          0.3061   -0.0698   -0.4394 O.2       1 <0>        -0.4757
     22 N1          1.0711    2.0298   -0.8329 N.am      1 <0>        -0.4987
     23 C16         2.3669    1.7322   -1.2177 C.2       1 <0>         0.4076
     24 N2          3.3241    2.5504   -1.5880 N.2       1 <0>        -0.5382
     25 C17         4.5553    2.1171   -1.9361 C.ar      1 <0>         0.1117
     26 C18         5.6681    2.8877   -2.3461 C.ar      1 <0>        -0.0445
     27 C19         6.8547    2.2861   -2.6736 C.ar      1 <0>        -0.1365
     28 C20         7.0089    0.9064   -2.6159 C.ar      1 <0>         0.0985
     29 C21         5.9398    0.1216   -2.2185 C.ar      1 <0>        -0.0872
     30 C22         4.7478    0.7175   -1.8889 C.ar      1 <0>        -0.1582
     31 S2          3.1599    0.1355   -1.3444 S.3       1 <0>         0.0693
     32 F1          8.1894    0.3370   -2.9435 F         1 <0>        -0.1335
     33 H2          1.0268    6.7054   -4.0502 H         1 <0>         0.1262
     34 H3          1.0866    6.0223   -1.6686 H         1 <0>         0.1306
     35 H4          0.3659    4.8950   -5.7734 H         1 <0>         0.1778
     36 H5          0.3102    5.3833    1.0234 H         1 <0>         0.1347
     37 H6          0.9795    7.7402    0.8229 H         1 <0>         0.1315
     38 H7         -2.4538    8.5314   -1.5899 H         1 <0>         0.1299
     39 H8         -3.1368    6.1768   -1.4113 H         1 <0>         0.1337
     40 H9          5.5815    3.9628   -2.4016 H         1 <0>         0.1418
     41 H10         7.6888    2.8980   -2.9839 H         1 <0>         0.1428
     42 H11         6.0430   -0.9523   -2.1679 H         1 <0>         0.1424
@<TRIPOS>BOND
     1    1    5 2
     2    1    2 1
     3    1   33 1
     4    2    3 2
     5    2   34 1
     6    3    4 1
     7    3    6 1
     8    4    5 1
     9    5   35 1
    10    6    8 1
    11    6   22 1
    12    6    7 1
    13    8   18 2
    14    8    9 1
    15    9   17 2
    16    9   10 1
    17   10   15 ar
    18   10   11 ar
    19   11   12 ar
    20   11   36 1
    21   12   13 ar
    22   12   37 1
    23   13   14 ar
    24   13   16 1
    25   14   15 ar
    26   14   38 1
    27   15   39 1
    28   18   20 1
    29   18   19 1
    30   20   22 am
    31   20   21 2
    32   22   23 1
    33   23   31 1
    34   23   24 2
    35   24   25 1
    36   25   30 ar
    37   25   26 ar
    38   26   27 ar
    39   26   40 1
    40   27   28 ar
    41   27   41 1
    42   28   29 ar
    43   28   32 1
    44   29   30 ar
    45   29   42 1
    46   30   31 1
@<TRIPOS>MOLECULE
ZINC37387075
   29    30     0     0     0
SMALL
USER_CHARGES

@<TRIPOS>ATOM
      1 C1         -0.0281    1.4599    0.0674 C.3       1 <0>        -0.1217
      2 C2         -0.0005   -0.0466    0.0425 C.ar      1 <0>        -0.0856
      3 C3          0.0018   -0.7182   -1.1658 C.ar      1 <0>        -0.0169
      4 C4          0.0275   -2.0999   -1.1887 C.ar      1 <0>        -0.5957
      5 C5          0.0510   -2.8111   -0.0032 C.ar      1 <0>        -0.0245
      6 C6          0.0488   -2.1406    1.2052 C.ar      1 <0>        -0.1141
      7 C7          0.0283   -0.7575    1.2286 C.ar      1 <0>        -0.0574
      8 Br1         0.0324    0.1607    2.8817 Br        1 <0>        -0.0552
      9 S1          0.0298   -2.9554   -2.7291 S.o2      1 <0>         2.6113
     10 O1         -0.4945   -4.2514   -2.4748 O.2       1 <0>        -1.0249
     11 O2         -0.5462   -2.0744   -3.6837 O.2       1 <0>        -1.0047
     12 N1          1.6121   -3.1634   -3.1713 N.2       1 <0>        -1.1102
     13 C8          1.9282   -3.9239   -4.3022 C.ar      1 <0>         0.2829
     14 C9          1.5520   -3.4830   -5.5650 C.ar      1 <0>        -0.1160
     15 C10         1.8662   -4.2364   -6.6805 C.ar      1 <0>        -0.0750
     16 C11         2.5542   -5.4288   -6.5404 C.ar      1 <0>        -0.0862
     17 C12         2.9302   -5.8705   -5.2841 C.ar      1 <0>        -0.0791
     18 C13         2.6239   -5.1188   -4.1653 C.ar      1 <0>        -0.0591
     19 Cl1         3.1023   -5.6702   -2.5903 Cl        1 <0>        -0.0638
     20 Cl2         2.9459   -6.3728   -7.9437 Cl        1 <0>        -0.0878
     21 Cl3         0.6879   -1.9877   -5.7416 Cl        1 <0>        -0.0278
     22 H1          0.9927    1.8421    0.0598 H         1 <0>         0.0771
     23 H2         -0.5604    1.8281   -0.8096 H         1 <0>         0.0735
     24 H3         -0.5364    1.7992    0.9699 H         1 <0>         0.0740
     25 H4         -0.0169   -0.1631   -2.0920 H         1 <0>         0.1454
     26 H5          0.0708   -3.8908   -0.0216 H         1 <0>         0.1444
     27 H6          0.0671   -2.6962    2.1311 H         1 <0>         0.1353
     28 H7          1.5741   -3.8942   -7.6623 H         1 <0>         0.1302
     29 H8          3.4667   -6.8018   -5.1780 H         1 <0>         0.1315
@<TRIPOS>BOND
     1    1    2 1
     2    1   22 1
     3    1   23 1
     4    1   24 1
     5    2    7 ar
     6    2    3 ar
     7    3    4 ar
     8    3   25 1
     9    4    5 ar
    10    4    9 1
    11    5    6 ar
    12    5   26 1
    13    6    7 ar
    14    6   27 1
    15    7    8 1
    16    9   10 2
    17    9   11 2
    18    9   12 1
    19   12   13 1
    20   13   18 ar
    21   13   14 ar
    22   14   15 ar
    23   14   21 1
    24   15   16 ar
    25   15   28 1
    26   16   17 ar
    27   16   20 1
    28   17   18 ar
    29   17   29 1
    30   18   19 1
@<TRIPOS>MOLECULE
ZINC33334705
   39    42     0     0     0
SMALL
USER_CHARGES

@<TRIPOS>ATOM
      1 C1         -0.0178    1.4608    0.0101 C.3       1 <0>         0.0845
      2 N1          0.0021   -0.0041    0.0020 N.am      1 <0>        -0.5585
      3 C2         -1.1349   -0.8033    0.0031 C.ar      1 <0>         0.1605
      4 C3         -2.4883   -0.4865    0.0117 C.ar      1 <0>        -0.1456
      5 C4         -3.4354   -1.4911    0.0111 C.ar      1 <0>        -0.0822
      6 C5         -3.0529   -2.8226    0.0021 C.ar      1 <0>        -0.1476
      7 C6         -1.7147   -3.1583   -0.0061 C.ar      1 <0>        -0.0532
      8 C7         -0.7508   -2.1526   -0.0061 C.ar      1 <0>        -0.1063
      9 C8          0.7258   -2.1663   -0.0132 C.2       1 <0>        -0.0825
     10 C9          1.5598   -3.2758   -0.0238 C.2       1 <0>        -0.0416
     11 C10         3.0393   -3.3495   -0.0252 C.2       1 <0>         0.4654
     12 O1          3.8024   -2.2330   -0.0152 O.3       1 <0>        -0.5658
     13 N2          3.5664   -4.5252   -0.0359 N.2       1 <0>        -0.6775
     14 C11         2.8203   -5.6486   -0.0456 C.2       1 <0>         0.4363
     15 N3          3.2244   -6.9032   -0.0563 N.2       1 <0>        -0.5347
     16 C12         4.5565   -7.1899   -0.0592 C.ar      1 <0>         0.1573
     17 C13         5.4250   -6.4904   -0.9051 C.ar      1 <0>        -0.0973
     18 C14         6.7711   -6.7862   -0.9016 C.ar      1 <0>        -0.1070
     19 C15         7.2649   -7.7726   -0.0648 C.ar      1 <0>        -0.1080
     20 C16         6.4128   -8.4690    0.7747 C.ar      1 <0>        -0.1758
     21 C17         5.0645   -8.1814    0.7876 C.ar      1 <0>        -0.0837
     22 C18         6.9612   -9.5410    1.6810 C.3       1 <0>         0.5113
     23 F1          8.3437   -9.6467    1.4948 F         1 <0>        -0.1812
     24 F2          6.6943   -9.2069    3.0131 F         1 <0>        -0.1793
     25 F3          6.3547  -10.7643    1.3765 F         1 <0>        -0.1800
     26 S1          1.1489   -5.0168   -0.0318 S.3       1 <0>        -0.0780
     27 C19         1.1221   -0.7468   -0.0131 C.2       1 <0>         0.5538
     28 O2          2.2627   -0.3219   -0.0222 O.2       1 <0>        -0.4382
     29 H1          1.0048    1.8381    0.0023 H         1 <0>         0.0907
     30 H2         -0.5450    1.8219   -0.8730 H         1 <0>         0.0675
     31 H3         -0.5280    1.8123    0.9069 H         1 <0>         0.0677
     32 H4         -2.7997    0.5476    0.0191 H         1 <0>         0.1245
     33 H5         -4.4849   -1.2363    0.0182 H         1 <0>         0.1280
     34 H6         -3.8036   -3.5991    0.0018 H         1 <0>         0.1284
     35 H7         -1.4159   -4.1961   -0.0124 H         1 <0>         0.1301
     36 H8          5.0413   -5.7212   -1.5590 H         1 <0>         0.1323
     37 H9          7.4426   -6.2474   -1.5537 H         1 <0>         0.1269
     38 H10         8.3206   -8.0001   -0.0674 H         1 <0>         0.1288
     39 H11         4.4015   -8.7228    1.4463 H         1 <0>         0.1299
@<TRIPOS>BOND
     1    1    2 1
     2    1   29 1
     3    1   30 1
     4    1   31 1
     5    2   27 am
     6    2    3 1
     7    3    8 ar
     8    3    4 ar
     9    4    5 ar
    10    4   32 1
    11    5    6 ar
    12    5   33 1
    13    6    7 ar
    14    6   34 1
    15    7    8 ar
    16    7   35 1
    17    8    9 1
    18    9   10 2
    19    9   27 1
    20   10   26 1
    21   10   11 1
    22   11   12 1
    23   11   13 2
    24   13   14 1
    25   14   15 2
    26   14   26 1
    27   15   16 1
    28   16   21 ar
    29   16   17 ar
    30   17   18 ar
    31   17   36 1
    32   18   19 ar
    33   18   37 1
    34   19   20 ar
    35   19   38 1
    36   20   21 ar
    37   20   22 1
    38   21   39 1
    39   22   23 1
    40   22   24 1
    41   22   25 1
    42   27   28 2
@<TRIPOS>MOLECULE
ZINC39775356
   49    52     0     0     0
SMALL
USER_CHARGES

@<TRIPOS>ATOM
      1 C1         -0.0187    1.5258    0.0104 C.3       1 <0>        -0.1590
      2 C2          0.0021   -0.0041    0.0020 C.3       1 <0>        -0.1041
      3 C3          0.7182   -0.4975   -1.2568 C.3       1 <0>        -0.0748
      4 H1          0.2444   -0.0644   -2.1377 H         1 <0>         0.1015
      5 C4          0.6303   -2.0233   -1.3286 C.3       1 <0>        -0.1486
      6 S1          2.4600    0.0058   -1.1981 S.3       1 <0>        -0.0024
      7 C5          3.1023   -0.4984   -2.7595 C.2       1 <0>         0.4326
      8 N1          2.2885   -1.0921   -3.6243 N.2       1 <0>        -0.6800
      9 C6          2.7314   -1.5754   -4.7756 C.2       1 <0>         0.5164
     10 O1          1.9437   -2.0673   -5.5606 O.2       1 <0>        -0.4898
     11 C7          4.1849   -1.5250   -5.1255 C.3       1 <0>        -0.2151
     12 H2          4.5824   -2.5385   -5.0718 H         1 <0>         0.1176
     13 C8          4.4143   -0.9995   -6.5388 C.3       1 <0>         0.0641
     14 H3          3.9012   -0.0460   -6.6645 H         1 <0>         0.0655
     15 C9          5.9042   -0.8082   -6.7355 C.2       1 <0>        -0.3938
     16 C10         6.6964   -0.4210   -5.6510 C.2       1 <0>         0.3041
     17 C11         8.1766   -0.1871   -5.8417 C.3       1 <0>        -0.0833
     18 C12         8.6924   -1.1137   -6.9461 C.3       1 <0>        -0.1104
     19 C13         7.9030   -0.8366   -8.2286 C.3       1 <0>        -0.1336
     20 C14         6.4343   -1.0190   -7.9616 C.2       1 <0>         0.3417
     21 O2          5.6274   -1.4020   -8.9679 O.3       1 <0>        -0.5788
     22 N2          6.1809   -0.2798   -4.4446 N.2       1 <0>        -0.6035
     23 C15         4.9485   -0.6711   -4.1515 C.2       1 <0>         0.4886
     24 N3          4.3858   -0.2649   -3.0315 N.2       1 <0>        -0.6135
     25 C16         3.8914   -1.9945   -7.5425 C.ar      1 <0>         0.0499
     26 C17         4.4045   -3.2780   -7.5747 C.ar      1 <0>        -0.0934
     27 C18         3.9262   -4.1914   -8.4950 C.ar      1 <0>        -0.0938
     28 C19         2.9330   -3.8219   -9.3844 C.ar      1 <0>        -0.0473
     29 C20         2.4189   -2.5368   -9.3518 C.ar      1 <0>        -0.0124
     30 C21         2.8953   -1.6253   -8.4265 C.ar      1 <0>        -0.0764
     31 Cl1         1.1730   -2.0713  -10.4675 Cl        1 <0>        -0.0749
     32 Cl2         2.3322   -4.9686  -10.5410 Cl        1 <0>        -0.0786
     33 H4          1.0039    1.9031    0.0027 H         1 <0>         0.0649
     34 H5         -0.5459    1.8868   -0.8726 H         1 <0>         0.0569
     35 H6         -0.5289    1.8773    0.9072 H         1 <0>         0.0556
     36 H7          0.5293   -0.3651    0.8851 H         1 <0>         0.0701
     37 H8         -1.0205   -0.3814    0.0098 H         1 <0>         0.0786
     38 H9          1.1041   -2.4564   -0.4477 H         1 <0>         0.0554
     39 H10        -0.4163   -2.3257   -1.3639 H         1 <0>         0.0589
     40 H11         1.1405   -2.3748   -2.2254 H         1 <0>         0.0826
     41 H12         8.3476    0.8508   -6.1274 H         1 <0>         0.0912
     42 H13         8.7022   -0.4014   -4.9112 H         1 <0>         0.0894
     43 H14         9.7512   -0.9213   -7.1198 H         1 <0>         0.0759
     44 H15         8.5515   -2.1524   -6.6473 H         1 <0>         0.0678
     45 H16         8.0886    0.1864   -8.5557 H         1 <0>         0.0882
     46 H17         8.2198   -1.5304   -9.0073 H         1 <0>         0.0831
     47 H18         5.1799   -3.5669   -6.8806 H         1 <0>         0.1168
     48 H19         4.3280   -5.1936   -8.5201 H         1 <0>         0.1278
     49 H20         2.4918   -0.6239   -8.3978 H         1 <0>         0.1224
@<TRIPOS>BOND
     1    1    2 1
     2    1   33 1
     3    1   34 1
     4    1   35 1
     5    2    3 1
     6    2   36 1
     7    2   37 1
     8    3    4 1
     9    3    5 1
    10    3    6 1
    11    5   38 1
    12    5   39 1
    13    5   40 1
    14    6    7 1
    15    7   24 1
    16    7    8 2
    17    8    9 1
    18    9   10 2
    19    9   11 1
    20   11   12 1
    21   11   23 1
    22   11   13 1
    23   13   14 1
    24   13   15 1
    25   13   25 1
    26   15   20 2
    27   15   16 1
    28   16   17 1
    29   16   22 2
    30   17   18 1
    31   17   41 1
    32   17   42 1
    33   18   19 1
    34   18   43 1
    35   18   44 1
    36   19   20 1
    37   19   45 1
    38   19   46 1
    39   20   21 1
    40   22   23 1
    41   23   24 2
    42   25   30 ar
    43   25   26 ar
    44   26   27 ar
    45   26   47 1
    46   27   28 ar
    47   27   48 1
    48   28   29 ar
    49   28   32 1
    50   29   30 ar
    51   29   31 1
    52   30   49 1
@<TRIPOS>MOLECULE
ZINC28794347
   26    27     0     0     0
SMALL
USER_CHARGES
2-bromo-N-(3,5-difluorophenyl)-4,6-difluoro-benzenesulfonamide
@<TRIPOS>ATOM
      1 C1          1.9088    0.9080   -3.6690 C.ar      1 <0>        -0.2007
      2 C2          2.1703    0.5921   -2.3421 C.ar      1 <0>         0.2719
      3 C3          1.5631   -0.5136   -1.7610 C.ar      1 <0>        -0.2387
      4 C4          0.6905   -1.2910   -2.5013 C.ar      1 <0>         0.1395
      5 C5          0.4309   -0.9739   -3.8240 C.ar      1 <0>        -0.2561
      6 C6          1.0400    0.1245   -4.4073 C.ar      1 <0>         0.1334
      7 F1          0.7852    0.4313   -5.6980 F         1 <0>        -0.1479
      8 F2          0.0953   -2.3635   -1.9349 F         1 <0>        -0.1474
      9 N1          3.0470    1.3817   -1.5949 N.2       1 <0>        -1.0504
     10 S1          2.6257    1.8709   -0.0699 S.o2      1 <0>         2.5731
     11 O1          3.7065    2.6535    0.4187 O.2       1 <0>        -0.9772
     12 O2          2.1522    0.7168    0.6105 O.2       1 <0>        -1.0038
     13 C7          1.2496    2.9591   -0.2334 C.ar      1 <0>        -0.6882
     14 C8          1.4576    4.3067   -0.4752 C.ar      1 <0>         0.2307
     15 C9          0.3766    5.1614   -0.6032 C.ar      1 <0>        -0.2079
     16 C10        -0.9121    4.6684   -0.4894 C.ar      1 <0>         0.1667
     17 C11        -1.1187    3.3200   -0.2533 C.ar      1 <0>        -0.1662
     18 C12        -0.0378    2.4674   -0.1198 C.ar      1 <0>         0.0369
     19 Br1        -0.3208    0.6271    0.2104 Br        1 <0>         0.0300
     20 F3         -1.9680    5.5019   -0.6146 F         1 <0>        -0.1255
     21 F4          2.7155    4.7868   -0.5866 F         1 <0>        -0.0995
     22 H1          2.3830    1.7650   -4.1241 H         1 <0>         0.1301
     23 H2          1.7687   -0.7639   -0.7307 H         1 <0>         0.1616
     24 H3         -0.2474   -1.5843   -4.4017 H         1 <0>         0.1278
     25 H4          0.5382    6.2124   -0.7921 H         1 <0>         0.1556
     26 H5         -2.1241    2.9345   -0.1689 H         1 <0>         0.1523
@<TRIPOS>BOND
     1    1    6 ar
     2    1    2 ar
     3    1   22 1
     4    2    3 ar
     5    2    9 1
     6    3    4 ar
     7    3   23 1
     8    4    5 ar
     9    4    8 1
    10    5    6 ar
    11    5   24 1
    12    6    7 1
    13    9   10 1
    14   10   11 2
    15   10   12 2
    16   10   13 1
    17   13   18 ar
    18   13   14 ar
    19   14   15 ar
    20   14   21 1
    21   15   16 ar
    22   15   25 1
    23   16   17 ar
    24   16   20 1
    25   17   18 ar
    26   17   26 1
    27   18   19 1
@<TRIPOS>MOLECULE
ZINC37909031
   26    27     0     0     0
SMALL
USER_CHARGES

@<TRIPOS>ATOM
      1 C1          1.2119   -0.6823   -0.0895 C.ar      1 <0>        -0.0785
      2 C2          2.3998    0.0233   -0.0822 C.ar      1 <0>        -0.2316
      3 C3          2.3819    1.4103   -0.0291 C.ar      1 <0>         0.2980
      4 C4          1.1684    2.0862    0.0168 C.ar      1 <0>        -0.1265
      5 C5         -0.0169    1.3763    0.0093 C.ar      1 <0>        -0.0759
      6 C6          0.0041   -0.0074   -0.0438 C.ar      1 <0>        -0.0134
      7 F1         -1.1561   -0.6997   -0.0514 F         1 <0>        -0.1573
      8 Br1         1.1396    3.9756    0.0899 Br        1 <0>        -0.0599
      9 N1          3.5833    2.1266   -0.0212 N.2       1 <0>        -1.0626
     10 S1          5.0265    1.3216    0.0858 S.o2      1 <0>         2.6036
     11 O1          5.0173    0.6350    1.3299 O.2       1 <0>        -1.0073
     12 O2          5.2101    0.6506   -1.1533 O.2       1 <0>        -1.0062
     13 C7          6.2956    2.5392    0.1920 C.ar      1 <0>        -0.7172
     14 C8          6.8830    3.0292   -0.9619 C.ar      1 <0>         0.2584
     15 C9          7.8801    3.9858   -0.8785 C.ar      1 <0>        -0.2310
     16 C10         8.2895    4.4529    0.3587 C.ar      1 <0>         0.1993
     17 C11         7.7015    3.9636    1.5125 C.ar      1 <0>        -0.2310
     18 C12         6.7014    3.0100    1.4289 C.ar      1 <0>         0.2586
     19 F2          6.1243    2.5359    2.5547 F         1 <0>        -0.0925
     20 F3          9.2632    5.3858    0.4402 F         1 <0>        -0.1200
     21 F4          6.4835    2.5734   -2.1693 F         1 <0>        -0.0927
     22 H1          1.2256   -1.7612   -0.1354 H         1 <0>         0.1228
     23 H2          3.3417   -0.5040   -0.1175 H         1 <0>         0.1144
     24 H3         -0.9603    1.9008    0.0452 H         1 <0>         0.1283
     25 H4          8.3389    4.3676   -1.7786 H         1 <0>         0.1602
     26 H5          8.0212    4.3277    2.4777 H         1 <0>         0.1602
@<TRIPOS>BOND
     1    1    6 ar
     2    1    2 ar
     3    1   22 1
     4    2    3 ar
     5    2   23 1
     6    3    4 ar
     7    3    9 1
     8    4    5 ar
     9    4    8 1
    10    5    6 ar
    11    5   24 1
    12    6    7 1
    13    9   10 1
    14   10   11 2
    15   10   12 2
    16   10   13 1
    17   13   18 ar
    18   13   14 ar
    19   14   15 ar
    20   14   21 1
    21   15   16 ar
    22   15   25 1
    23   16   17 ar
    24   16   20 1
    25   17   18 ar
    26   17   26 1
    27   18   19 1
@<TRIPOS>MOLECULE
ZINC44786632
   57    61     0     0     0
SMALL
USER_CHARGES

@<TRIPOS>ATOM
      1 C1         -0.0187    1.5258    0.0104 C.3       1 <0>        -0.1424
      2 C2          0.0021   -0.0041    0.0020 C.3       1 <0>        -0.0553
      3 C3          0.7421   -0.5109    1.2415 C.3       1 <0>        -0.1417
      4 C4         -1.4125   -0.5260    0.0127 C.2       1 <0>        -0.1163
      5 C5         -1.8535   -1.2834   -0.9823 C.2       1 <0>        -0.1683
      6 C6         -3.3284   -1.6990   -0.7447 C.3       1 <0>         0.0144
      7 C7         -3.7415   -2.6343   -1.8562 C.3       1 <0>        -0.0868
      8 C8         -5.0081   -3.4268   -1.5499 C.3       1 <0>        -0.1256
      9 C9         -4.9580   -4.0753   -0.1690 C.3       1 <0>        -0.0366
     10 H1         -4.1362   -4.8084   -0.1674 H         1 <0>         0.0327
     11 C10        -4.6612   -3.0284    0.9080 C.3       1 <0>        -0.0722
     12 H2         -5.4147   -2.2470    0.9023 H         1 <0>         0.1110
     13 C11        -3.2937   -2.4253    0.5925 C.3       1 <0>        -0.0723
     14 H3         -2.6117   -3.2751    0.4646 H         1 <0>         0.0580
     15 C12        -2.7319   -1.5946    1.7338 C.3       1 <0>        -0.1094
     16 C13        -2.3493   -0.1796    1.1647 C.3       1 <0>        -0.0330
     17 H4         -1.9113    0.4965    1.8976 H         1 <0>         0.1055
     18 C14        -3.7220    0.2729    0.6568 C.3       1 <0>        -0.1295
     19 H5         -4.4856   -0.1105    1.3366 H         1 <0>         0.1178
     20 C15        -3.9613   -0.3335   -0.7366 C.3       1 <0>        -0.0974
     21 H6         -3.3689    0.2798   -1.4386 H         1 <0>         0.0955
     22 C16        -5.3904   -0.0899   -1.0815 C.2       1 <0>         0.3653
     23 O1         -6.1289   -0.9359   -1.5376 O.2       1 <0>        -0.3651
     24 C17        -5.8858    1.2963   -0.8474 C.2       1 <0>        -0.1257
     25 C18        -5.1607    2.1820   -0.1368 C.2       1 <0>        -0.1831
     26 C19        -3.9044    1.7599    0.5335 C.2       1 <0>         0.3914
     27 O2         -3.0861    2.5537    0.9497 O.2       1 <0>        -0.4375
     28 C20        -4.6094   -3.6995    2.2801 C.3       1 <0>        -0.1015
     29 C21        -5.9372   -4.3964    2.5753 C.3       1 <0>        -0.1128
     30 C22        -6.2114   -5.4550    1.5095 C.3       1 <0>        -0.0909
     31 C23        -6.2586   -4.8149    0.1224 C.3       1 <0>        -0.1541
     32 H7         -6.3797   -5.6160   -0.6211 H         1 <0>         0.0473
     33 C24        -7.4498   -3.9010    0.0283 C.2       1 <0>         0.5086
     34 O3         -8.4834   -4.2974   -0.4825 O.co2     1 <0>        -0.7135
     35 O4         -7.3815   -2.7639    0.4629 O.co2     1 <0>        -0.6794
     36 H8          1.0039    1.9031    0.0027 H         1 <0>         0.0497
     37 H9         -0.5459    1.8868   -0.8726 H         1 <0>         0.0498
     38 H10        -0.5289    1.8773    0.9072 H         1 <0>         0.0644
     39 H11         0.5123   -0.3556   -0.8948 H         1 <0>         0.0689
     40 H12         0.7568   -1.6008    1.2356 H         1 <0>         0.0538
     41 H13         1.7647   -0.1336    1.2338 H         1 <0>         0.0514
     42 H14         0.2319   -0.1594    2.1383 H         1 <0>         0.0568
     43 H15        -1.2762   -1.5771   -1.8450 H         1 <0>         0.1290
     44 H16        -3.9010   -2.0499   -2.7670 H         1 <0>         0.0531
     45 H17        -2.9233   -3.3365   -2.0451 H         1 <0>         0.0544
     46 H18        -5.8802   -2.8017   -1.6582 H         1 <0>         0.1080
     47 H19        -5.0869   -4.2345   -2.2956 H         1 <0>         0.0372
     48 H20        -3.4779   -1.4810    2.5198 H         1 <0>         0.0733
     49 H21        -1.8435   -2.0800    2.1405 H         1 <0>         0.0629
     50 H22        -6.8440    1.5908   -1.2543 H         1 <0>         0.1468
     51 H23        -5.4960    3.2064   -0.0512 H         1 <0>         0.1430
     52 H24        -3.8034   -4.4351    2.2908 H         1 <0>         0.0438
     53 H25        -4.4209   -2.9489    3.0481 H         1 <0>         0.0512
     54 H26        -5.8730   -4.8828    3.5544 H         1 <0>         0.0386
     55 H27        -6.7410   -3.6643    2.6059 H         1 <0>         0.0770
     56 H28        -5.4215   -6.2080    1.5335 H         1 <0>         0.0402
     57 H29        -7.1687   -5.9385    1.7161 H         1 <0>         0.0501
@<TRIPOS>BOND
     1    1    2 1
     2    1   36 1
     3    1   37 1
     4    1   38 1
     5    2    3 1
     6    2    4 1
     7    2   39 1
     8    3   40 1
     9    3   41 1
    10    3   42 1
    11    4   16 1
    12    4    5 2
    13    5    6 1
    14    5   43 1
    15    6   13 1
    16    6   20 1
    17    6    7 1
    18    7    8 1
    19    7   44 1
    20    7   45 1
    21    8    9 1
    22    8   46 1
    23    8   47 1
    24    9   10 1
    25    9   31 1
    26    9   11 1
    27   11   12 1
    28   11   13 1
    29   11   28 1
    30   13   14 1
    31   13   15 1
    32   15   16 1
    33   15   48 1
    34   15   49 1
    35   16   17 1
    36   16   18 1
    37   18   19 1
    38   18   26 1
    39   18   20 1
    40   20   21 1
    41   20   22 1
    42   22   23 2
    43   22   24 1
    44   24   25 2
    45   24   50 1
    46   25   26 1
    47   25   51 1
    48   26   27 2
    49   28   29 1
    50   28   52 1
    51   28   53 1
    52   29   30 1
    53   29   54 1
    54   29   55 1
    55   30   31 1
    56   30   56 1
    57   30   57 1
    58   31   32 1
    59   31   33 1
    60   33   34 2
    61   33   35 1
@<TRIPOS>MOLECULE
ZINC17823030
   29    31     0     0     0
SMALL
USER_CHARGES

@<TRIPOS>ATOM
      1 C1          0.0085    1.2031   -0.2953 C.2       1 <0>        -0.1925
      2 C2          1.2102    1.8122   -0.5689 C.2       1 <0>        -0.0880
      3 C3          2.3223    1.2559    0.0545 C.2       1 <0>        -0.2401
      4 S1          1.5921   -0.0823    0.9785 S.3       1 <0>         0.3113
      5 C4         -0.0145    0.1338    0.5378 C.2       1 <0>        -0.2533
      6 C5          3.6787    1.6494   -0.0242 C.2       1 <0>         0.1324
      7 C6          4.6661    0.7137    0.0642 C.2       1 <0>        -0.2438
      8 C7          4.5632   -0.7533    0.0724 C.2       1 <0>         0.5542
      9 O1          3.4855   -1.3152   -0.0069 O.2       1 <0>        -0.4701
     10 N1          5.6916   -1.4358    0.1692 N.am      1 <0>        -0.6467
     11 C8          6.9012   -0.7822    0.2580 C.2       1 <0>         0.4078
     12 N2          8.1054   -1.3001    0.3590 N.2       1 <0>        -0.4656
     13 C9          9.1984   -0.4803    0.4368 C.ar      1 <0>         0.1139
     14 C10         9.3139    0.6179   -0.4186 C.ar      1 <0>        -0.1432
     15 C11        10.4179    1.4404   -0.3347 C.ar      1 <0>        -0.0678
     16 C12        11.4103    1.1795    0.5948 C.ar      1 <0>        -0.0948
     17 C13        11.3022    0.0924    1.4454 C.ar      1 <0>        -0.0743
     18 C14        10.2007   -0.7347    1.3758 C.ar      1 <0>        -0.0921
     19 Br1        12.9203    2.3126    0.7027 Br        1 <0>        -0.0432
     20 S2          6.4341    0.9399    0.1935 S.3       1 <0>        -0.0188
     21 H1         -0.9056    1.5742   -0.7347 H         1 <0>         0.1329
     22 H2          1.2859    2.6665   -1.2253 H         1 <0>         0.1448
     23 H3         -0.8708   -0.4467    0.8478 H         1 <0>         0.1847
     24 H4          3.9321    2.6912   -0.1544 H         1 <0>         0.1635
     25 H5          5.6675   -2.4054    0.1781 H         1 <0>         0.4258
     26 H6          8.5406    0.8223   -1.1443 H         1 <0>         0.1397
     27 H7         10.5086    2.2896   -0.9957 H         1 <0>         0.1397
     28 H8         12.0801   -0.1057    2.1680 H         1 <0>         0.1418
     29 H9         10.1153   -1.5796    2.0431 H         1 <0>         0.1416
@<TRIPOS>BOND
     1    1    5 2
     2    1    2 1
     3    1   21 1
     4    2    3 2
     5    2   22 1
     6    3    4 1
     7    3    6 1
     8    4    5 1
     9    5   23 1
    10    6    7 2
    11    6   24 1
    12    7   20 1
    13    7    8 1
    14    8    9 2
    15    8   10 am
    16   10   11 1
    17   10   25 1
    18   11   12 2
    19   11   20 1
    20   12   13 1
    21   13   18 ar
    22   13   14 ar
    23   14   15 ar
    24   14   26 1
    25   15   16 ar
    26   15   27 1
    27   16   17 ar
    28   16   19 1
    29   17   18 ar
    30   17   28 1
    31   18   29 1
@<TRIPOS>MOLECULE
ZINC62545897
   38    40     0     0     0
SMALL
USER_CHARGES

@<TRIPOS>ATOM
      1 C1         -0.0184    1.5028    0.0103 C.3       1 <0>        -0.1163
      2 C2          0.0021   -0.0041    0.0020 C.ar      1 <0>        -0.0523
      3 C3          0.0057   -0.6887   -1.1989 C.ar      1 <0>        -0.1476
      4 C4          0.0245   -2.0709   -1.2065 C.ar      1 <0>        -0.0200
      5 C5          0.0400   -2.7685   -0.0132 C.ar      1 <0>        -0.6205
      6 C6          0.0373   -2.0839    1.1877 C.ar      1 <0>        -0.0201
      7 C7          0.0229   -0.7016    1.1953 C.ar      1 <0>        -0.1475
      8 S1          0.0628   -4.5303   -0.0229 S.o2      1 <0>         2.6034
      9 O1         -0.4759   -4.9503    1.2232 O.2       1 <0>        -1.0252
     10 O2         -0.4897   -4.9367   -1.2674 O.2       1 <0>        -1.0253
     11 N1          1.6509   -4.9994   -0.0343 N.2       1 <0>        -1.0774
     12 C8          1.9778   -6.3567   -0.0434 C.ar      1 <0>         0.2451
     13 C9          3.3122   -6.7609   -0.0473 C.ar      1 <0>        -0.1512
     14 C10         3.5902   -8.1151   -0.0564 C.ar      1 <0>        -0.1051
     15 C11         2.5342   -9.0250   -0.0615 C.ar      1 <0>         0.0272
     16 N2          1.2765   -8.6033   -0.0581 N.ar      1 <0>        -0.4278
     17 C12         0.9769   -7.3211   -0.0431 C.ar      1 <0>        -0.0401
     18 C13         2.8199  -10.4803   -0.0713 C.ar      1 <0>         0.0050
     19 C14         4.1376  -10.9344   -0.0697 C.ar      1 <0>        -0.1252
     20 C15         4.3976  -12.2898   -0.0790 C.ar      1 <0>        -0.1208
     21 C16         3.3533  -13.1969   -0.0898 C.ar      1 <0>        -0.1404
     22 C17         2.0436  -12.7519   -0.0919 C.ar      1 <0>        -0.1221
     23 C18         1.7718  -11.3989   -0.0765 C.ar      1 <0>        -0.1039
     24 H1          1.0042    1.8801    0.0026 H         1 <0>         0.0731
     25 H2         -0.5455    1.8639   -0.8728 H         1 <0>         0.0672
     26 H3         -0.5286    1.8543    0.9071 H         1 <0>         0.0672
     27 H4         -0.0064   -0.1436   -2.1312 H         1 <0>         0.1257
     28 H5          0.0266   -2.6057   -2.1448 H         1 <0>         0.1365
     29 H6          0.0491   -2.6289    2.1200 H         1 <0>         0.1365
     30 H7          0.0245   -0.1667    2.1335 H         1 <0>         0.1257
     31 H8          4.1101   -6.0330   -0.0435 H         1 <0>         0.1263
     32 H9          4.6124   -8.4635   -0.0600 H         1 <0>         0.1207
     33 H10        -0.0589   -7.0152   -0.0357 H         1 <0>         0.1294
     34 H11         4.9537  -10.2271   -0.0616 H         1 <0>         0.1224
     35 H12         5.4183  -12.6429   -0.0781 H         1 <0>         0.1166
     36 H13         3.5614  -14.2567   -0.0970 H         1 <0>         0.1135
     37 H14         1.2322  -13.4646   -0.1008 H         1 <0>         0.1164
     38 H15         0.7488  -11.0526   -0.0730 H         1 <0>         0.1307
@<TRIPOS>BOND
     1    1    2 1
     2    1   24 1
     3    1   25 1
     4    1   26 1
     5    2    7 ar
     6    2    3 ar
     7    3    4 ar
     8    3   27 1
     9    4    5 ar
    10    4   28 1
    11    5    6 ar
    12    5    8 1
    13    6    7 ar
    14    6   29 1
    15    7   30 1
    16    8    9 2
    17    8   10 2
    18    8   11 1
    19   11   12 1
    20   12   17 ar
    21   12   13 ar
    22   13   14 ar
    23   13   31 1
    24   14   15 ar
    25   14   32 1
    26   15   16 ar
    27   15   18 1
    28   16   17 ar
    29   17   33 1
    30   18   23 ar
    31   18   19 ar
    32   19   20 ar
    33   19   34 1
    34   20   21 ar
    35   20   35 1
    36   21   22 ar
    37   21   36 1
    38   22   23 ar
    39   22   37 1
    40   23   38 1
@<TRIPOS>MOLECULE
ZINC02894667
   43    48     0     0     0
SMALL
USER_CHARGES
2-(2-thienyl)-6-[[2-(2-thienyl)benzooxazol-5-yl]methyl]benzooxazole
@<TRIPOS>ATOM
      1 C1          3.1590   -3.6788   -0.0479 C.2       1 <0>        -0.1732
      2 C2          3.0228   -2.3100   -0.0444 C.2       1 <0>        -0.0736
      3 C3          1.7343   -1.8052   -0.0237 C.2       1 <0>        -0.1455
      4 S1          0.7561   -3.2971   -0.0224 S.3       1 <0>         0.1746
      5 C4          2.0463   -4.4548   -0.0413 C.2       1 <0>        -0.1851
      6 C5          1.2883   -0.4058   -0.0124 C.2       1 <0>         0.3366
      7 N1          2.0837    0.6383   -0.0144 N.2       1 <0>        -0.4585
      8 C6          1.3250    1.7642   -0.0011 C.ar      1 <0>         0.0263
      9 C7          1.6253    3.1288    0.0037 C.ar      1 <0>        -0.0552
     10 C8          0.6043    4.0525    0.0188 C.ar      1 <0>        -0.1090
     11 C9         -0.7188    3.6367    0.0293 C.ar      1 <0>        -0.0509
     12 C10        -1.0303    2.2922    0.0292 C.ar      1 <0>        -0.0859
     13 C11        -0.0163    1.3480    0.0095 C.ar      1 <0>         0.0159
     14 O1          0.0021   -0.0041    0.0020 O.3       1 <0>        -0.2074
     15 C12        -1.8245    4.6606    0.0452 C.3       1 <0>        -0.0361
     16 C13        -2.2066    5.0094   -1.3702 C.ar      1 <0>        -0.0781
     17 C14        -3.1991    4.2858   -2.0143 C.ar      1 <0>        -0.0838
     18 C15        -3.5605    4.5928   -3.3103 C.ar      1 <0>        -0.0868
     19 C16        -2.9290    5.6313   -3.9761 C.ar      1 <0>         0.0103
     20 C17        -1.9234    6.3669   -3.3281 C.ar      1 <0>         0.0327
     21 C18        -1.5720    6.0482   -2.0138 C.ar      1 <0>        -0.0524
     22 N2         -1.4943    7.3047   -4.2111 N.2       1 <0>        -0.4654
     23 C19        -2.1725    7.1740   -5.3273 C.2       1 <0>         0.3396
     24 O2         -3.0546    6.1616   -5.2136 O.3       1 <0>        -0.2033
     25 C20        -1.9965    8.0083   -6.5232 C.2       1 <0>        -0.1504
     26 C21        -2.6562    7.9419   -7.7381 C.2       1 <0>        -0.0933
     27 C22        -2.2938    8.8578   -8.6983 C.2       1 <0>        -0.1735
     28 C23        -1.3191    9.7591   -8.4190 C.2       1 <0>        -0.1964
     29 S2         -0.8712    9.3665   -6.7910 S.3       1 <0>         0.2212
     30 H1          4.1400   -4.1303   -0.0596 H         1 <0>         0.1455
     31 H2          3.8836   -1.6578   -0.0543 H         1 <0>         0.1521
     32 H3          1.9802   -5.5328   -0.0466 H         1 <0>         0.1950
     33 H4          2.6540    3.4576   -0.0047 H         1 <0>         0.1400
     34 H5          0.8352    5.1076    0.0223 H         1 <0>         0.1404
     35 H6         -2.0631    1.9765    0.0426 H         1 <0>         0.1378
     36 H7         -2.6908    4.2517    0.5652 H         1 <0>         0.0943
     37 H8         -1.4815    5.5577    0.5606 H         1 <0>         0.0960
     38 H9         -3.6926    3.4757   -1.4979 H         1 <0>         0.1427
     39 H10        -4.3345    4.0248   -3.8048 H         1 <0>         0.1387
     40 H11        -0.8028    6.6115   -1.5064 H         1 <0>         0.1395
     41 H12        -3.4240    7.2052   -7.9230 H         1 <0>         0.1465
     42 H13        -2.7767    8.8569   -9.6643 H         1 <0>         0.1433
     43 H14        -0.9188   10.5335   -9.0566 H         1 <0>         0.1951
@<TRIPOS>BOND
     1    1    5 2
     2    1    2 1
     3    1   30 1
     4    2    3 2
     5    2   31 1
     6    3    4 1
     7    3    6 1
     8    4    5 1
     9    5   32 1
    10    6   14 1
    11    6    7 2
    12    7    8 1
    13    8   13 ar
    14    8    9 ar
    15    9   10 ar
    16    9   33 1
    17   10   11 ar
    18   10   34 1
    19   11   12 ar
    20   11   15 1
    21   12   13 ar
    22   12   35 1
    23   13   14 1
    24   15   16 1
    25   15   36 1
    26   15   37 1
    27   16   21 ar
    28   16   17 ar
    29   17   18 ar
    30   17   38 1
    31   18   19 ar
    32   18   39 1
    33   19   24 1
    34   19   20 ar
    35   20   21 ar
    36   20   22 1
    37   21   40 1
    38   22   23 2
    39   23   24 1
    40   23   25 1
    41   25   29 1
    42   25   26 2
    43   26   27 1
    44   26   41 1
    45   27   28 2
    46   27   42 1
    47   28   29 1
    48   28   43 1
@<TRIPOS>MOLECULE
ZINC17091731
   57    60     0     0     0
SMALL
USER_CHARGES
1-[[3,5-bis(3,4-dimethylphenyl)pyrazol-1-yl]methyl]-4-chloro-3,5-dimethyl-pyrazole
@<TRIPOS>ATOM
      1 C1        -10.3906    1.1177   -0.4124 C.3       1 <0>        -0.1210
      2 C2         -8.8950    0.9571   -0.3204 C.ar      1 <0>        -0.0758
      3 C3         -8.0952    2.0641   -0.0995 C.ar      1 <0>        -0.1174
      4 C4         -6.7251    1.9227   -0.0144 C.ar      1 <0>        -0.0939
      5 C5         -6.1476    0.6620   -0.1509 C.ar      1 <0>        -0.0229
      6 C6         -6.9572   -0.4485   -0.3784 C.ar      1 <0>        -0.0851
      7 C7         -8.3270   -0.2965   -0.4566 C.ar      1 <0>        -0.0891
      8 C8         -9.2046   -1.4977   -0.6971 C.3       1 <0>        -0.1183
      9 C9         -4.6745    0.5038   -0.0602 C.2       1 <0>         0.1325
     10 C10        -3.7559    1.5186    0.2568 C.2       1 <0>        -0.2364
     11 C11        -2.5069    0.9707    0.2377 C.2       1 <0>         0.1458
     12 N1         -2.6407   -0.3469   -0.0877 N.pl3     1 <0>        -0.3876
     13 N2         -4.0049   -0.6118   -0.2622 N.2       1 <0>        -0.2766
     14 C12        -1.5502   -1.3153   -0.2265 C.3       1 <0>         0.3752
     15 N3         -1.1957   -1.8439    1.0930 N.pl3     1 <0>        -0.3840
     16 C13        -1.7326   -2.9337    1.6828 C.2       1 <0>         0.1172
     17 C14        -1.1370   -3.0851    2.8890 C.2       1 <0>        -0.1842
     18 C15        -0.2046   -2.0529    3.0411 C.2       1 <0>         0.1016
     19 N4         -0.2355   -1.3117    1.9632 N.2       1 <0>        -0.2660
     20 C16         0.6857   -1.8357    4.2375 C.3       1 <0>        -0.0769
     21 Cl1        -1.4714   -4.3379    4.0433 Cl        1 <0>        -0.0367
     22 C17        -2.8031   -3.8216    1.1025 C.3       1 <0>        -0.1031
     23 C18        -1.2369    1.6787    0.5137 C.ar      1 <0>        -0.0347
     24 C19        -1.1972    2.7024    1.4608 C.ar      1 <0>        -0.0881
     25 C20        -0.0091    3.3551    1.7173 C.ar      1 <0>        -0.1117
     26 C21         1.1403    2.9999    1.0338 C.ar      1 <0>        -0.0719
     27 C22         1.1062    1.9894    0.0899 C.ar      1 <0>        -0.0763
     28 C23        -0.0761    1.3292   -0.1761 C.ar      1 <0>        -0.0947
     29 C24         2.3628    1.6088   -0.6500 C.3       1 <0>        -0.1191
     30 C25         2.4348    3.7166    1.3193 C.3       1 <0>        -0.1212
     31 H1        -10.6731    1.3024   -1.4488 H         1 <0>         0.0728
     32 H2        -10.8761    0.2076   -0.0601 H         1 <0>         0.0719
     33 H3        -10.7043    1.9593    0.2052 H         1 <0>         0.0672
     34 H4         -8.5439    3.0408    0.0062 H         1 <0>         0.1272
     35 H5         -6.1016    2.7876    0.1574 H         1 <0>         0.1267
     36 H6         -6.5143   -1.4272   -0.4894 H         1 <0>         0.1276
     37 H7         -9.3378   -1.6416   -1.7693 H         1 <0>         0.0717
     38 H8         -8.7350   -2.3826   -0.2673 H         1 <0>         0.0662
     39 H9        -10.1757   -1.3379   -0.2285 H         1 <0>         0.0719
     40 H10        -3.9959    2.5486    0.4760 H         1 <0>         0.1539
     41 H11        -1.8708   -2.1334   -0.8715 H         1 <0>         0.1311
     42 H12        -0.6822   -0.8244   -0.6665 H         1 <0>         0.1344
     43 H13         1.6234   -2.3728    4.0949 H         1 <0>         0.0830
     44 H14         0.8903   -0.7709    4.3496 H         1 <0>         0.0778
     45 H15         0.1873   -2.2061    5.1333 H         1 <0>         0.0819
     46 H16        -2.3384   -4.6252    0.5312 H         1 <0>         0.0876
     47 H17        -3.3991   -4.2472    1.9098 H         1 <0>         0.0909
     48 H18        -3.4461   -3.2344    0.4468 H         1 <0>         0.0834
     49 H19        -2.0936    2.9802    1.9952 H         1 <0>         0.1257
     50 H20         0.0238    4.1451    2.4529 H         1 <0>         0.1275
     51 H21        -0.1015    0.5403   -0.9133 H         1 <0>         0.1158
     52 H22         2.8867    0.8281   -0.0987 H         1 <0>         0.0736
     53 H23         2.1027    1.2408   -1.6425 H         1 <0>         0.0642
     54 H24         3.0077    2.4825   -0.7440 H         1 <0>         0.0732
     55 H25         2.9677    3.2001    2.1176 H         1 <0>         0.0736
     56 H26         3.0501    3.7277    0.4196 H         1 <0>         0.0720
     57 H27         2.2229    4.7406    1.6271 H         1 <0>         0.0676
@<TRIPOS>BOND
     1    1    2 1
     2    1   31 1
     3    1   32 1
     4    1   33 1
     5    2    7 ar
     6    2    3 ar
     7    3    4 ar
     8    3   34 1
     9    4    5 ar
    10    4   35 1
    11    5    6 ar
    12    5    9 1
    13    6    7 ar
    14    6   36 1
    15    7    8 1
    16    8   37 1
    17    8   38 1
    18    8   39 1
    19    9   13 2
    20    9   10 1
    21   10   11 2
    22   10   40 1
    23   11   12 1
    24   11   23 1
    25   12   13 1
    26   12   14 1
    27   14   15 1
    28   14   41 1
    29   14   42 1
    30   15   19 1
    31   15   16 1
    32   16   17 2
    33   16   22 1
    34   17   18 1
    35   17   21 1
    36   18   19 2
    37   18   20 1
    38   20   43 1
    39   20   44 1
    40   20   45 1
    41   22   46 1
    42   22   47 1
    43   22   48 1
    44   23   28 ar
    45   23   24 ar
    46   24   25 ar
    47   24   49 1
    48   25   26 ar
    49   25   50 1
    50   26   27 ar
    51   26   30 1
    52   27   28 ar
    53   27   29 1
    54   28   51 1
    55   29   52 1
    56   29   53 1
    57   29   54 1
    58   30   55 1
    59   30   56 1
    60   30   57 1
@<TRIPOS>MOLECULE
ZINC30823861
   39    43     0     0     0
SMALL
USER_CHARGES
2-(4-bromophenyl)-5-[2-(2-thienyl)-4-quinolyl]-1,3,4-oxadiazole
@<TRIPOS>ATOM
      1 C1          1.1933   10.0605    0.0466 C.ar      1 <0>        -0.1019
      2 C2         -0.1586    9.7271    0.0579 C.ar      1 <0>        -0.0939
      3 C3         -0.5614    8.4264    0.0543 C.ar      1 <0>        -0.0889
      4 C4          0.3989    7.3990    0.0386 C.ar      1 <0>         0.1394
      5 C5          1.7726    7.7443    0.0267 C.ar      1 <0>        -0.0686
      6 C6          2.1519    9.0900    0.0312 C.ar      1 <0>        -0.1028
      7 C7          2.7679    6.6692    0.0104 C.ar      1 <0>         0.0359
      8 C8          2.2961    5.3623    0.0141 C.ar      1 <0>        -0.1155
      9 C9          0.9133    5.1298    0.0209 C.ar      1 <0>         0.2462
     10 N1          0.0330    6.1147    0.0351 N.ar      1 <0>        -0.4434
     11 C10         0.4247    3.7374    0.0181 C.2       1 <0>        -0.1352
     12 C11        -0.8657    3.2746    0.0279 C.2       1 <0>        -0.0991
     13 C12        -1.0811    1.9158    0.0167 C.2       1 <0>        -0.1641
     14 C13        -0.0126    1.0758    0.0080 C.2       1 <0>        -0.1551
     15 S1          1.3604    2.2169    0.0010 S.3       1 <0>         0.0720
     16 C14         4.2127    6.9624   -0.0024 C.2       1 <0>         0.2124
     17 N2          4.7645    8.1558   -0.0067 N.2       1 <0>        -0.2533
     18 N3          6.0453    8.0338   -0.0159 N.2       1 <0>        -0.2629
     19 C15         6.3621    6.7573   -0.0260 C.2       1 <0>         0.2198
     20 O1          5.2115    6.0553   -0.0178 O.3       1 <0>        -0.2072
     21 C16         7.7281    6.1961   -0.0434 C.ar      1 <0>        -0.0165
     22 C17         7.9177    4.8125   -0.0470 C.ar      1 <0>        -0.0747
     23 C18         9.1958    4.2947   -0.0696 C.ar      1 <0>        -0.0908
     24 C19        10.2898    5.1435   -0.0760 C.ar      1 <0>        -0.0666
     25 C20        10.1086    6.5163   -0.0667 C.ar      1 <0>        -0.0904
     26 C21         8.8356    7.0467   -0.0504 C.ar      1 <0>        -0.0566
     27 Br1        12.0388    4.4249   -0.0983 Br        1 <0>        -0.0322
     28 H1          1.4865   11.0999    0.0504 H         1 <0>         0.1354
     29 H2         -0.8995   10.5128    0.0700 H         1 <0>         0.1367
     30 H3         -1.6140    8.1848    0.0632 H         1 <0>         0.1429
     31 H4          3.1977    9.3596    0.0229 H         1 <0>         0.1618
     32 H5          2.9880    4.5331    0.0074 H         1 <0>         0.1482
     33 H6         -1.6974    3.9635    0.0399 H         1 <0>         0.1455
     34 H7         -2.0865    1.5215    0.0184 H         1 <0>         0.1415
     35 H8          0.0021   -0.0041    0.0020 H         1 <0>         0.1924
     36 H9          7.0653    4.1495   -0.0371 H         1 <0>         0.1432
     37 H10         9.3437    3.2249   -0.0773 H         1 <0>         0.1462
     38 H11        10.9660    7.1730   -0.0718 H         1 <0>         0.1483
     39 H12         8.6956    8.1175   -0.0428 H         1 <0>         0.1520
@<TRIPOS>BOND
     1    1    6 ar
     2    1    2 ar
     3    1   28 1
     4    2    3 ar
     5    2   29 1
     6    3    4 ar
     7    3   30 1
     8    4   10 ar
     9    4    5 ar
    10    5    6 ar
    11    5    7 ar
    12    6   31 1
    13    7    8 ar
    14    7   16 1
    15    8    9 ar
    16    8   32 1
    17    9   10 ar
    18    9   11 1
    19   11   15 1
    20   11   12 2
    21   12   13 1
    22   12   33 1
    23   13   14 2
    24   13   34 1
    25   14   15 1
    26   14   35 1
    27   16   20 1
    28   16   17 2
    29   17   18 1
    30   18   19 2
    31   19   20 1
    32   19   21 1
    33   21   26 ar
    34   21   22 ar
    35   22   23 ar
    36   22   36 1
    37   23   24 ar
    38   23   37 1
    39   24   25 ar
    40   24   27 1
    41   25   26 ar
    42   25   38 1
    43   26   39 1
@<TRIPOS>MOLECULE
ZINC01183016
   45    47     0     0     0
SMALL
USER_CHARGES

@<TRIPOS>ATOM
      1 C1         -0.1431    1.3628   -0.7926 C.3       1 <0>        -0.1047
      2 C2         -0.0640   -0.0830   -0.3748 C.2       1 <0>        -0.2047
      3 C3         -1.1565   -0.6994    0.1071 C.2       1 <0>         0.1425
      4 C4         -1.0801   -2.1448    0.5321 C.3       1 <0>        -0.0793
      5 C5          0.0220   -2.8428   -0.2726 C.3       1 <0>         0.1561
      6 H1         -0.2675   -2.8932   -1.3223 H         1 <0>         0.0942
      7 O1          1.2315   -2.0864   -0.1433 O.3       1 <0>        -0.3376
      8 C6          1.1603   -0.7853   -0.4981 C.2       1 <0>         0.5295
      9 O2          2.1487   -0.2150   -0.9196 O.2       1 <0>        -0.4424
     10 C7          0.2329   -4.2362    0.2614 C.ar      1 <0>        -0.0909
     11 C8          0.9861   -4.4318    1.4039 C.ar      1 <0>        -0.0866
     12 C9          1.1796   -5.7099    1.8937 C.ar      1 <0>        -0.1218
     13 C10         0.6195   -6.7923    1.2413 C.ar      1 <0>        -0.1073
     14 C11        -0.1345   -6.5965    0.0993 C.ar      1 <0>        -0.1200
     15 C12        -0.3315   -5.3181   -0.3881 C.ar      1 <0>        -0.1001
     16 C13        -2.4219   -2.8292    0.2635 C.3       1 <0>        -0.1387
     17 C14        -0.7524   -2.2232    2.0245 C.3       1 <0>        -0.1484
     18 O3         -2.3211   -0.0257    0.2112 O.3       1 <0>        -0.2837
     19 C15        -2.7133    0.3748    1.4378 C.2       1 <0>         0.5113
     20 O4         -1.9782    0.2177    2.3919 O.2       1 <0>        -0.4682
     21 C16        -4.0363    1.0040    1.6208 C.ar      1 <0>        -0.1142
     22 C17        -4.8863    1.1809    0.5266 C.ar      1 <0>        -0.0535
     23 C18        -6.1206    1.7693    0.7043 C.ar      1 <0>        -0.1026
     24 C19        -6.5179    2.1851    1.9642 C.ar      1 <0>        -0.0547
     25 C20        -5.6796    2.0131    3.0531 C.ar      1 <0>        -0.1007
     26 C21        -4.4455    1.4199    2.8899 C.ar      1 <0>        -0.0436
     27 Br1        -8.2121    2.9917    2.1985 Br        1 <0>        -0.0303
     28 H2          0.8483    1.7126   -1.0804 H         1 <0>         0.0861
     29 H3         -0.8226    1.4597   -1.6393 H         1 <0>         0.0815
     30 H4         -0.5122    1.9618    0.0399 H         1 <0>         0.0712
     31 H5          1.4237   -3.5862    1.9136 H         1 <0>         0.1289
     32 H6          1.7687   -5.8628    2.7859 H         1 <0>         0.1267
     33 H7          0.7713   -7.7909    1.6236 H         1 <0>         0.1254
     34 H8         -0.5718   -7.4422   -0.4106 H         1 <0>         0.1275
     35 H9         -0.9237   -5.1648   -1.2782 H         1 <0>         0.1259
     36 H10        -2.6504   -2.7758   -0.8009 H         1 <0>         0.0689
     37 H11        -2.3652   -3.8733    0.5711 H         1 <0>         0.0781
     38 H12        -3.2061   -2.3259    0.8291 H         1 <0>         0.0642
     39 H13        -1.5321   -1.7183    2.5948 H         1 <0>         0.0800
     40 H14        -0.6976   -3.2681    2.3301 H         1 <0>         0.0779
     41 H15         0.2060   -1.7391    2.2119 H         1 <0>         0.0646
     42 H16        -4.5773    0.8577   -0.4565 H         1 <0>         0.1498
     43 H17        -6.7787    1.9066   -0.1409 H         1 <0>         0.1462
     44 H18        -5.9950    2.3401    4.0328 H         1 <0>         0.1475
     45 H19        -3.7948    1.2817    3.7407 H         1 <0>         0.1501
@<TRIPOS>BOND
     1    1    2 1
     2    1   28 1
     3    1   29 1
     4    1   30 1
     5    2    8 1
     6    2    3 2
     7    3    4 1
     8    3   18 1
     9    4    5 1
    10    4   16 1
    11    4   17 1
    12    5    6 1
    13    5    7 1
    14    5   10 1
    15    7    8 1
    16    8    9 2
    17   10   15 ar
    18   10   11 ar
    19   11   12 ar
    20   11   31 1
    21   12   13 ar
    22   12   32 1
    23   13   14 ar
    24   13   33 1
    25   14   15 ar
    26   14   34 1
    27   15   35 1
    28   16   36 1
    29   16   37 1
    30   16   38 1
    31   17   39 1
    32   17   40 1
    33   17   41 1
    34   18   19 1
    35   19   20 2
    36   19   21 1
    37   21   26 ar
    38   21   22 ar
    39   22   23 ar
    40   22   42 1
    41   23   24 ar
    42   23   43 1
    43   24   25 ar
    44   24   27 1
    45   25   26 ar
    46   25   44 1
    47   26   45 1
@<TRIPOS>MOLECULE
ZINC59316850
   52    56     0     0     0
SMALL
USER_CHARGES

@<TRIPOS>ATOM
      1 C1         -0.7405    1.4476    0.7587 C.3       1 <0>        -0.1195
      2 C2         -0.6366   -0.0528    0.6638 C.ar      1 <0>        -0.0646
      3 C3          0.5341   -0.6352    0.2123 C.ar      1 <0>        -0.1196
      4 C4          0.6351   -2.0085    0.1233 C.ar      1 <0>        -0.0922
      5 C5         -0.4456   -2.8095    0.4900 C.ar      1 <0>        -0.0456
      6 C6         -1.6229   -2.2168    0.9449 C.ar      1 <0>        -0.0724
      7 C7         -1.7104   -0.8425    1.0341 C.ar      1 <0>        -0.1223
      8 C8         -0.3437   -4.2850    0.3963 C.2       1 <0>         0.1637
      9 C9          0.6459   -5.1300    1.0708 C.ar      1 <0>        -0.1692
     10 C10         1.7150   -4.8746    1.9363 C.ar      1 <0>        -0.0615
     11 C11         2.4518   -5.9360    2.3879 C.ar      1 <0>        -0.1189
     12 C12         2.1192   -7.2303    1.9763 C.ar      1 <0>         0.2448
     13 N1          1.1043   -7.4518    1.1565 N.ar      1 <0>        -0.4598
     14 C13         0.3611   -6.4570    0.6927 C.ar      1 <0>         0.3272
     15 N2         -0.7227   -6.4038   -0.1482 N.pl3     1 <0>        -0.3324
     16 N3         -1.1260   -5.0738   -0.3009 N.2       1 <0>        -0.2029
     17 C14        -1.3320   -7.5088   -0.7539 C.ar      1 <0>         0.1471
     18 C15        -0.5639   -8.5948   -1.1536 C.ar      1 <0>        -0.1086
     19 C16        -1.1682   -9.6835   -1.7510 C.ar      1 <0>        -0.1002
     20 C17        -2.5365   -9.6931   -1.9514 C.ar      1 <0>        -0.0836
     21 C18        -3.3040   -8.6132   -1.5550 C.ar      1 <0>        -0.1026
     22 C19        -2.7068   -7.5240   -0.9515 C.ar      1 <0>        -0.1060
     23 C20        -3.1925  -10.8828   -2.6036 C.3       1 <0>        -0.1168
     24 C21         2.9202   -8.3777    2.4679 C.ar      1 <0>         0.1523
     25 C22         2.5993   -9.6703    2.0584 C.ar      1 <0>        -0.1210
     26 C23         3.3561  -10.7311    2.5256 C.ar      1 <0>        -0.0788
     27 C24         4.4098  -10.4639    3.3880 C.ar      1 <0>        -0.1536
     28 C25         4.6722   -9.1559    3.7533 C.ar      1 <0>         0.1049
     29 N4          3.9396   -8.1643    3.2897 N.ar      1 <0>        -0.4648
     30 C26         2.0470   -3.4671    2.3602 C.3       1 <0>         0.5104
     31 F1          3.0318   -3.4992    3.3533 F         1 <0>        -0.1678
     32 F2          2.5199   -2.7473    1.2576 F         1 <0>        -0.1616
     33 F3          0.8976   -2.8480    2.8630 F         1 <0>        -0.1603
     34 H1         -0.4071    1.7734    1.7440 H         1 <0>         0.0745
     35 H2         -0.1129    1.9044   -0.0066 H         1 <0>         0.0692
     36 H3         -1.7766    1.7504    0.6071 H         1 <0>         0.0689
     37 H4          1.3706   -0.0137   -0.0715 H         1 <0>         0.1291
     38 H5          1.5494   -2.4620   -0.2301 H         1 <0>         0.1426
     39 H6         -2.4634   -2.8321    1.2300 H         1 <0>         0.1255
     40 H7         -2.6203   -0.3824    1.3901 H         1 <0>         0.1287
     41 H8          3.2842   -5.7750    3.0569 H         1 <0>         0.1730
     42 H9          0.5047   -8.5878   -0.9977 H         1 <0>         0.1340
     43 H10        -0.5715  -10.5281   -2.0623 H         1 <0>         0.1333
     44 H11        -4.3723   -8.6235   -1.7136 H         1 <0>         0.1333
     45 H12        -3.3074   -6.6830   -0.6378 H         1 <0>         0.1332
     46 H13        -3.4827  -11.6026   -1.8382 H         1 <0>         0.0740
     47 H14        -4.0776  -10.5558   -3.1492 H         1 <0>         0.0694
     48 H15        -2.4916  -11.3505   -3.2950 H         1 <0>         0.0693
     49 H16         1.7717   -9.8421    1.3861 H         1 <0>         0.1479
     50 H17         3.1311  -11.7441    2.2260 H         1 <0>         0.1421
     51 H18         5.0190  -11.2694    3.7705 H         1 <0>         0.1421
     52 H19         5.4916   -8.9445    4.4243 H         1 <0>         0.1659
@<TRIPOS>BOND
     1    1    2 1
     2    1   34 1
     3    1   35 1
     4    1   36 1
     5    2    7 ar
     6    2    3 ar
     7    3    4 ar
     8    3   37 1
     9    4    5 ar
    10    4   38 1
    11    5    6 ar
    12    5    8 1
    13    6    7 ar
    14    6   39 1
    15    7   40 1
    16    8   16 2
    17    8    9 1
    18    9   14 ar
    19    9   10 ar
    20   10   11 ar
    21   10   30 1
    22   11   12 ar
    23   11   41 1
    24   12   13 ar
    25   12   24 1
    26   13   14 ar
    27   14   15 1
    28   15   16 1
    29   15   17 1
    30   17   22 ar
    31   17   18 ar
    32   18   19 ar
    33   18   42 1
    34   19   20 ar
    35   19   43 1
    36   20   21 ar
    37   20   23 1
    38   21   22 ar
    39   21   44 1
    40   22   45 1
    41   23   46 1
    42   23   47 1
    43   23   48 1
    44   24   29 ar
    45   24   25 ar
    46   25   26 ar
    47   25   49 1
    48   26   27 ar
    49   26   50 1
    50   27   28 ar
    51   27   51 1
    52   28   29 ar
    53   28   52 1
    54   30   31 1
    55   30   32 1
    56   30   33 1
@<TRIPOS>MOLECULE
ZINC01013303
   37    39     0     0     0
SMALL
USER_CHARGES
4-fluoro-N-[2-(1H-indol-3-yl)ethyl]benzenesulfonamide
@<TRIPOS>ATOM
      1 C1         -0.7161    3.7459    0.0298 C.ar      1 <0>        -0.1440
      2 C2          0.6112    4.1528    0.0193 C.ar      1 <0>        -0.0971
      3 C3          1.6301    3.2259    0.0042 C.ar      1 <0>        -0.1311
      4 C4          1.3287    1.8677   -0.0006 C.ar      1 <0>         0.0946
      5 C5         -0.0178    1.4607    0.0101 C.ar      1 <0>        -0.1016
      6 C6         -1.0347    2.4173    0.0299 C.ar      1 <0>        -0.0712
      7 C7          0.0021   -0.0041    0.0020 C.2       1 <0>        -0.1752
      8 C8          1.2910   -0.3789   -0.0123 C.2       1 <0>         0.0601
      9 N1          2.0981    0.7260   -0.0140 N.pl3     1 <0>        -0.5950
     10 H1          3.0679    0.7076   -0.0237 H         1 <0>         0.4169
     11 C9         -1.1970   -0.9169    0.0090 C.3       1 <0>        -0.0475
     12 C10        -1.6931   -1.1181   -1.4243 C.3       1 <0>         0.1182
     13 N2         -2.8588   -2.0055   -1.4175 N.pl3     1 <0>        -1.1164
     14 S1         -3.8280   -2.1095   -2.7562 S.o2      1 <0>         2.6977
     15 O1         -4.8411   -3.0581   -2.4514 O.2       1 <0>        -0.9549
     16 O2         -4.1255   -0.7760   -3.1468 O.2       1 <0>        -0.9504
     17 C11        -2.8566   -2.8083   -4.0496 C.ar      1 <0>        -0.6931
     18 C12        -2.1363   -1.9846   -4.8946 C.ar      1 <0>         0.0091
     19 C13        -1.3703   -2.5318   -5.9063 C.ar      1 <0>        -0.1749
     20 C14        -1.3328   -3.9050   -6.0802 C.ar      1 <0>         0.1575
     21 C15        -2.0588   -4.7286   -5.2366 C.ar      1 <0>        -0.1755
     22 C16        -2.8200   -4.1794   -4.2222 C.ar      1 <0>         0.0117
     23 F1         -0.5881   -4.4407   -7.0719 F         1 <0>        -0.1280
     24 H2         -1.5030    4.4855    0.0412 H         1 <0>         0.1234
     25 H3          0.8473    5.2067    0.0226 H         1 <0>         0.1255
     26 H4          2.6595    3.5524   -0.0042 H         1 <0>         0.1194
     27 H5         -2.0694    2.1082    0.0431 H         1 <0>         0.1230
     28 H6          1.6393   -1.4012   -0.0211 H         1 <0>         0.1701
     29 H7         -0.9177   -1.8804    0.4354 H         1 <0>         0.0784
     30 H8         -1.9901   -0.4704    0.6087 H         1 <0>         0.0813
     31 H9         -1.9724   -0.1546   -1.8507 H         1 <0>         0.0837
     32 H10        -0.9000   -1.5646   -2.0240 H         1 <0>         0.0660
     33 H11        -3.0628   -2.5321   -0.6289 H         1 <0>         0.4206
     34 H12        -2.1690   -0.9134   -4.7613 H         1 <0>         0.1517
     35 H13        -0.8044   -1.8884   -6.5637 H         1 <0>         0.1474
     36 H14        -2.0300   -5.7998   -5.3710 H         1 <0>         0.1476
     37 H15        -3.3861   -4.8217   -3.5639 H         1 <0>         0.1519
@<TRIPOS>BOND
     1    1    6 ar
     2    1    2 ar
     3    1   24 1
     4    2    3 ar
     5    2   25 1
     6    3    4 ar
     7    3   26 1
     8    4    9 1
     9    4    5 ar
    10    5    6 ar
    11    5    7 1
    12    6   27 1
    13    7    8 2
    14    7   11 1
    15    8    9 1
    16    8   28 1
    17    9   10 1
    18   11   12 1
    19   11   29 1
    20   11   30 1
    21   12   13 1
    22   12   31 1
    23   12   32 1
    24   13   14 1
    25   13   33 1
    26   14   15 2
    27   14   16 2
    28   14   17 1
    29   17   22 ar
    30   17   18 ar
    31   18   19 ar
    32   18   34 1
    33   19   20 ar
    34   19   35 1
    35   20   21 ar
    36   20   23 1
    37   21   22 ar
    38   21   36 1
    39   22   37 1
@<TRIPOS>MOLECULE
ZINC37135157
   35    36     0     0     0
SMALL
USER_CHARGES

@<TRIPOS>ATOM
      1 C1          0.1942    1.2132    0.2306 C.3       1 <0>        -0.1686
      2 C2          0.0910   -0.3102    0.3290 C.3       1 <0>         0.2383
      3 H1          0.6589   -0.7659   -0.4821 H         1 <0>         0.1058
      4 C3          0.6494   -0.7672    1.6520 C.2       1 <0>        -0.1528
      5 C4          1.8703   -1.2856    1.9293 C.2       1 <0>        -0.1358
      6 C5          2.1686   -1.6393    3.2323 C.2       1 <0>        -0.1366
      7 C6          1.2296   -1.4566    4.1941 C.2       1 <0>        -0.1165
      8 S1         -0.1232   -0.7586    3.2613 S.3       1 <0>         0.0950
      9 Cl1         1.3219   -1.8046    5.8924 Cl        1 <0>         0.0222
     10 N1         -1.3142   -0.7120    0.2270 N.pl3     1 <0>        -0.7447
     11 C7         -1.9026   -0.8876   -1.0313 C.ar      1 <0>         0.2029
     12 C8         -1.1556   -0.6874   -2.1822 C.ar      1 <0>        -0.1771
     13 C9         -1.7386   -0.8618   -3.4238 C.ar      1 <0>        -0.0819
     14 C10        -3.0659   -1.2359   -3.5223 C.ar      1 <0>        -0.1443
     15 C11        -3.8182   -1.4377   -2.3799 C.ar      1 <0>        -0.1264
     16 C12        -3.2402   -1.2701   -1.1306 C.ar      1 <0>         0.0759
     17 N2         -3.9985   -1.4791    0.0277 N.pl3     1 <0>        -1.0531
     18 S2         -5.1506   -2.6683    0.0597 S.o2      1 <0>         2.6096
     19 O1         -5.6470   -2.6564    1.3911 O.2       1 <0>        -0.9522
     20 O2         -6.0068   -2.3732   -1.0353 O.2       1 <0>        -0.9468
     21 C13        -4.2418   -4.2064   -0.2546 C.3       1 <0>        -0.6678
     22 H2          1.2397    1.5121    0.3065 H         1 <0>         0.0719
     23 H3         -0.2097    1.5437   -0.7263 H         1 <0>         0.0732
     24 H4         -0.3737    1.6689    1.0417 H         1 <0>         0.0636
     25 H5          2.5995   -1.4208    1.1442 H         1 <0>         0.1449
     26 H6          3.1341   -2.0550    3.4804 H         1 <0>         0.1458
     27 H7         -1.8369   -0.8563    1.0313 H         1 <0>         0.3967
     28 H8         -0.1186   -0.3948   -2.1089 H         1 <0>         0.1279
     29 H9         -1.1555   -0.7051   -4.3192 H         1 <0>         0.1261
     30 H10        -3.5166   -1.3705   -4.4945 H         1 <0>         0.1280
     31 H11        -4.8549   -1.7295   -2.4604 H         1 <0>         0.1610
     32 H12        -3.8491   -0.9274    0.8113 H         1 <0>         0.4198
     33 H13        -3.4917   -4.3506    0.5231 H         1 <0>         0.1299
     34 H14        -4.9364   -5.0464   -0.2496 H         1 <0>         0.1339
     35 H15        -3.7511   -4.1465   -1.2260 H         1 <0>         0.1320
@<TRIPOS>BOND
     1    1    2 1
     2    1   22 1
     3    1   23 1
     4    1   24 1
     5    2    3 1
     6    2    4 1
     7    2   10 1
     8    4    8 1
     9    4    5 2
    10    5    6 1
    11    5   25 1
    12    6    7 2
    13    6   26 1
    14    7    8 1
    15    7    9 1
    16   10   11 1
    17   10   27 1
    18   11   16 ar
    19   11   12 ar
    20   12   13 ar
    21   12   28 1
    22   13   14 ar
    23   13   29 1
    24   14   15 ar
    25   14   30 1
    26   15   16 ar
    27   15   31 1
    28   16   17 1
    29   17   18 1
    30   17   32 1
    31   18   19 2
    32   18   20 2
    33   18   21 1
    34   21   33 1
    35   21   34 1
    36   21   35 1
@<TRIPOS>MOLECULE
ZINC46621128
   36    37     0     0     0
SMALL
USER_CHARGES

@<TRIPOS>ATOM
      1 C1         -0.0187    1.5258    0.0104 C.3       1 <0>        -0.1624
      2 C2          0.0021   -0.0041    0.0020 C.3       1 <0>         0.2318
      3 H1          0.5123   -0.3556   -0.8948 H         1 <0>         0.1156
      4 C3         -1.4117   -0.5257    0.0127 C.2       1 <0>        -0.1578
      5 C4         -2.1568   -0.9920   -1.0186 C.2       1 <0>        -0.1318
      6 C5         -3.4470   -1.4244   -0.7724 C.2       1 <0>        -0.1368
      7 C6         -3.9280   -1.3685    0.4948 C.2       1 <0>        -0.1148
      8 S1         -2.5363   -0.6967    1.3887 S.3       1 <0>         0.0972
      9 Cl1        -5.4892   -1.8357    1.0931 Cl        1 <0>         0.0227
     10 N1          0.7106   -0.4894    1.1889 N.am      1 <0>        -0.7226
     11 C7          2.0538   -0.5998    1.1737 C.2       1 <0>         0.5173
     12 O1          2.6758   -0.2974    0.1774 O.2       1 <0>        -0.5304
     13 C8          2.7826   -1.0990    2.3946 C.3       1 <0>         0.1003
     14 N2          4.2226   -1.1273    2.1261 N.am      1 <0>        -0.7155
     15 C9          5.0781   -1.5425    3.0813 C.2       1 <0>         0.5629
     16 O2          4.6549   -1.8935    4.1655 O.2       1 <0>        -0.5212
     17 C10         6.5297   -1.5710    2.8106 C.ar      1 <0>        -0.1773
     18 C11         7.0201   -1.1630    1.5682 C.ar      1 <0>        -0.0560
     19 C12         8.3763   -1.1916    1.3222 C.ar      1 <0>        -0.1384
     20 C13         9.2534   -1.6238    2.3025 C.ar      1 <0>        -0.0600
     21 C14         8.7779   -2.0299    3.5350 C.ar      1 <0>        -0.1649
     22 C15         7.4204   -2.0010    3.7990 C.ar      1 <0>         0.1619
     23 F1          6.9561   -2.3928    5.0057 F         1 <0>        -0.1137
     24 H2          1.0039    1.9031    0.0027 H         1 <0>         0.0735
     25 H3         -0.5459    1.8868   -0.8726 H         1 <0>         0.0755
     26 H4         -0.5289    1.8773    0.9072 H         1 <0>         0.0637
     27 H5         -1.7492   -1.0252   -2.0181 H         1 <0>         0.1457
     28 H6         -4.0622   -1.8003   -1.5765 H         1 <0>         0.1464
     29 H7          0.2131   -0.7312    1.9857 H         1 <0>         0.4050
     30 H8          2.5826   -0.4337    3.2345 H         1 <0>         0.1055
     31 H9          2.4385   -2.1044    2.6374 H         1 <0>         0.1053
     32 H10         4.5602   -0.8472    1.2610 H         1 <0>         0.4120
     33 H11         6.3382   -0.8261    0.8015 H         1 <0>         0.1377
     34 H12         8.7557   -0.8762    0.3616 H         1 <0>         0.1386
     35 H13        10.3146   -1.6440    2.1029 H         1 <0>         0.1402
     36 H14         9.4677   -2.3665    4.2947 H         1 <0>         0.1448
@<TRIPOS>BOND
     1    1    2 1
     2    1   24 1
     3    1   25 1
     4    1   26 1
     5    2    3 1
     6    2    4 1
     7    2   10 1
     8    4    8 1
     9    4    5 2
    10    5    6 1
    11    5   27 1
    12    6    7 2
    13    6   28 1
    14    7    8 1
    15    7    9 1
    16   10   11 am
    17   10   29 1
    18   11   12 2
    19   11   13 1
    20   13   14 1
    21   13   30 1
    22   13   31 1
    23   14   15 am
    24   14   32 1
    25   15   16 2
    26   15   17 1
    27   17   22 ar
    28   17   18 ar
    29   18   19 ar
    30   18   33 1
    31   19   20 ar
    32   19   34 1
    33   20   21 ar
    34   20   35 1
    35   21   22 ar
    36   21   36 1
    37   22   23 1
@<TRIPOS>MOLECULE
ZINC46141217
   43    45     0     0     0
SMALL
USER_CHARGES

@<TRIPOS>ATOM
      1 C1          0.6902   -4.6839    1.7412 C.3       1 <0>        -0.1610
      2 C2          0.4576   -3.5985    0.6882 C.3       1 <0>         0.1337
      3 C3          1.2231   -3.9536   -0.5880 C.3       1 <0>        -0.1642
      4 N1         -0.9737   -3.5067    0.3896 N.am      1 <0>        -0.7212
      5 C4         -1.4903   -2.3563   -0.0861 C.2       1 <0>         0.5580
      6 O1         -0.7892   -1.3716   -0.1845 O.2       1 <0>        -0.5295
      7 C5         -2.9392   -2.2937   -0.4958 C.3       1 <0>        -0.1191
      8 C6         -3.2509   -1.8367   -1.9223 C.3       1 <0>        -0.1335
      9 C7         -3.4240   -3.3067   -1.5349 C.3       1 <0>        -0.1617
     10 C8         -3.9050   -1.8943    0.5900 C.ar      1 <0>        -0.0596
     11 C9         -4.9371   -2.7445    0.9422 C.ar      1 <0>        -0.0900
     12 C10        -5.8236   -2.3817    1.9371 C.ar      1 <0>        -0.1402
     13 C11        -5.6776   -1.1613    2.5841 C.ar      1 <0>         0.1496
     14 C12        -4.6398   -0.3097    2.2279 C.ar      1 <0>        -0.1137
     15 C13        -3.7537   -0.6809    1.2357 C.ar      1 <0>        -0.0808
     16 N2         -6.5737   -0.7907    3.5916 N.am      1 <0>        -0.6706
     17 C14        -6.9455    0.4982    3.7221 C.2       1 <0>         0.6076
     18 O2         -6.5950    1.3194    2.8950 O.2       1 <0>        -0.5028
     19 C15        -7.7717    0.9109    4.8600 C.2       1 <0>        -0.2659
     20 C16        -8.2617    2.1698    5.1734 C.2       1 <0>        -0.0590
     21 C17        -9.0168    2.2481    6.3190 C.2       1 <0>        -0.1856
     22 C18        -9.2281    1.1240    7.0473 C.2       1 <0>        -0.2148
     23 S1         -8.4154   -0.0761    6.1977 S.3       1 <0>         0.2081
     24 H1          1.7551   -4.7522    1.9634 H         1 <0>         0.0738
     25 H2          0.1448   -4.4309    2.6504 H         1 <0>         0.0621
     26 H3          0.3364   -5.6418    1.3599 H         1 <0>         0.0614
     27 H4          0.8114   -2.6406    1.0695 H         1 <0>         0.0891
     28 H5          0.8693   -4.9115   -0.9693 H         1 <0>         0.0574
     29 H6          1.0574   -3.1804   -1.3382 H         1 <0>         0.0590
     30 H7          2.2881   -4.0220   -0.3658 H         1 <0>         0.0674
     31 H8         -1.5495   -4.2737    0.5342 H         1 <0>         0.4012
     32 H9         -4.1546   -1.2469   -2.0757 H         1 <0>         0.1077
     33 H10        -2.4080   -1.5814   -2.5645 H         1 <0>         0.1038
     34 H11        -2.6950   -4.0184   -1.9222 H         1 <0>         0.1029
     35 H12        -4.4416   -3.6839   -1.4334 H         1 <0>         0.1082
     36 H13        -5.0503   -3.6931    0.4385 H         1 <0>         0.1310
     37 H14        -6.6297   -3.0460    2.2115 H         1 <0>         0.1297
     38 H15        -4.5238    0.6401    2.7288 H         1 <0>         0.1340
     39 H16        -2.9440   -0.0209    0.9611 H         1 <0>         0.1314
     40 H17        -6.9278   -1.4612    4.1965 H         1 <0>         0.4102
     41 H18        -8.0622    3.0337    4.5568 H         1 <0>         0.1520
     42 H19        -9.4359    3.1920    6.6350 H         1 <0>         0.1419
     43 H20        -9.7935    1.0225    7.9619 H         1 <0>         0.1919
@<TRIPOS>BOND
     1    1    2 1
     2    1   24 1
     3    1   25 1
     4    1   26 1
     5    2    3 1
     6    2    4 1
     7    2   27 1
     8    3   28 1
     9    3   29 1
    10    3   30 1
    11    4    5 am
    12    4   31 1
    13    5    6 2
    14    5    7 1
    15    7    9 1
    16    7    8 1
    17    7   10 1
    18    8    9 1
    19    8   32 1
    20    8   33 1
    21    9   34 1
    22    9   35 1
    23   10   15 ar
    24   10   11 ar
    25   11   12 ar
    26   11   36 1
    27   12   13 ar
    28   12   37 1
    29   13   14 ar
    30   13   16 1
    31   14   15 ar
    32   14   38 1
    33   15   39 1
    34   16   17 am
    35   16   40 1
    36   17   18 2
    37   17   19 1
    38   19   23 1
    39   19   20 2
    40   20   21 1
    41   20   41 1
    42   21   22 2
    43   21   42 1
    44   22   23 1
    45   22   43 1
@<TRIPOS>MOLECULE
ZINC66394121
   45    46     0     0     0
SMALL
USER_CHARGES

@<TRIPOS>ATOM
      1 C1         -0.0187    1.5258    0.0104 C.3       1 <0>        -0.1517
      2 C2          0.0021   -0.0041    0.0020 C.3       1 <0>        -0.0400
      3 H1          0.5123   -0.3556   -0.8948 H         1 <0>         0.0920
      4 C3          0.7421   -0.5109    1.2415 C.3       1 <0>        -0.1336
      5 C4          2.1879   -0.0922    1.1696 C.2       1 <0>         0.5174
      6 O1          2.5872    0.5485    0.2204 O.2       1 <0>        -0.5297
      7 N1          3.0373   -0.4297    2.1601 N.am      1 <0>        -0.6148
      8 C5          2.5698   -1.2108    3.3134 C.3       1 <0>         0.1014
      9 C6          3.4687   -2.4410    3.4728 C.3       1 <0>        -0.1348
     10 C7          4.9288   -1.9921    3.5679 C.3       1 <0>        -0.1124
     11 C8          5.3262   -1.2670    2.2800 C.3       1 <0>        -0.1241
     12 H2          5.1849   -1.9333    1.4290 H         1 <0>         0.1030
     13 C9          4.4497   -0.0288    2.1042 C.3       1 <0>         0.1301
     14 C10         6.7734   -0.8546    2.3611 C.2       1 <0>         0.5251
     15 O2          7.0750    0.3177    2.2854 O.2       1 <0>        -0.5372
     16 N2          7.7325   -1.7884    2.5178 N.am      1 <0>        -0.8537
     17 C11        -1.4117   -0.5257    0.0127 C.ar      1 <0>        -0.0444
     18 C12        -2.2591   -0.2043    1.0565 C.ar      1 <0>        -0.1167
     19 C13        -3.5560   -0.6827    1.0663 C.ar      1 <0>        -0.0671
     20 C14        -4.0056   -1.4823    0.0321 C.ar      1 <0>        -0.1871
     21 C15        -3.1585   -1.8029   -1.0121 C.ar      1 <0>        -0.0664
     22 C16        -1.8629   -1.3209   -1.0241 C.ar      1 <0>        -0.1157
     23 C17        -5.4191   -2.0047    0.0433 C.3       1 <0>         0.5077
     24 F1         -6.2581   -1.0939   -0.6077 F         1 <0>        -0.1762
     25 F2         -5.4661   -3.2368   -0.6176 F         1 <0>        -0.1771
     26 F3         -5.8453   -2.1683    1.3657 F         1 <0>        -0.1772
     27 H3          1.0039    1.9031    0.0027 H         1 <0>         0.0817
     28 H4         -0.5459    1.8868   -0.8726 H         1 <0>         0.0579
     29 H5         -0.5289    1.8773    0.9072 H         1 <0>         0.0526
     30 H6          0.2852   -0.0874    2.1360 H         1 <0>         0.0976
     31 H7          0.6803   -1.5984    1.2822 H         1 <0>         0.0971
     32 H8          2.6235   -0.5998    4.2145 H         1 <0>         0.0744
     33 H9          1.5409   -1.5292    3.1462 H         1 <0>         0.0899
     34 H10         3.1933   -2.9777    4.3807 H         1 <0>         0.0846
     35 H11         3.3450   -3.0961    2.6105 H         1 <0>         0.0718
     36 H12         5.0467   -1.3173    4.4157 H         1 <0>         0.0739
     37 H13         5.5684   -2.8638    3.7060 H         1 <0>         0.0733
     38 H14         4.6607    0.4324    1.1393 H         1 <0>         0.1011
     39 H15         4.6601    0.6808    2.9044 H         1 <0>         0.0783
     40 H16         7.4912   -2.7260    2.5784 H         1 <0>         0.4017
     41 H17         8.6640   -1.5229    2.5700 H         1 <0>         0.4041
     42 H18        -1.9079    0.4204    1.8645 H         1 <0>         0.1344
     43 H19        -4.2179   -0.4322    1.8822 H         1 <0>         0.1364
     44 H20        -3.5096   -2.4278   -1.8199 H         1 <0>         0.1366
     45 H21        -1.2022   -1.5684   -1.8418 H         1 <0>         0.1358
@<TRIPOS>BOND
     1    1    2 1
     2    1   27 1
     3    1   28 1
     4    1   29 1
     5    2    3 1
     6    2    4 1
     7    2   17 1
     8    4    5 1
     9    4   30 1
    10    4   31 1
    11    5    6 2
    12    5    7 am
    13    7   13 1
    14    7    8 1
    15    8    9 1
    16    8   32 1
    17    8   33 1
    18    9   10 1
    19    9   34 1
    20    9   35 1
    21   10   11 1
    22   10   36 1
    23   10   37 1
    24   11   12 1
    25   11   13 1
    26   11   14 1
    27   13   38 1
    28   13   39 1
    29   14   15 2
    30   14   16 am
    31   16   40 1
    32   16   41 1
    33   17   22 ar
    34   17   18 ar
    35   18   19 ar
    36   18   42 1
    37   19   20 ar
    38   19   43 1
    39   20   21 ar
    40   20   23 1
    41   21   22 ar
    42   21   44 1
    43   22   45 1
    44   23   24 1
    45   23   25 1
    46   23   26 1
@<TRIPOS>MOLECULE
ZINC13591519
   42    44     0     0     0
SMALL
USER_CHARGES
2-[5-amino-4-(4-fluorophenyl)thiazol-2-yl]sulfanyl-N-[[(2S)-tetrahydrofuran-2-yl]methyl]acetamide
@<TRIPOS>ATOM
      1 C1         -2.2217    5.7408   12.6323 C.ar      1 <0>        -0.1024
      2 C2         -2.7089    6.1297   13.8630 C.ar      1 <0>        -0.1459
      3 C3         -3.8801    6.8654   13.9461 C.ar      1 <0>         0.0955
      4 C4         -4.5643    7.2201   12.7947 C.ar      1 <0>        -0.1464
      5 C5         -4.0824    6.8416   11.5587 C.ar      1 <0>        -0.0637
      6 C6         -2.9038    6.1003   11.4695 C.ar      1 <0>        -0.0081
      7 C7         -2.3818    5.6913   10.1455 C.2       1 <0>        -0.0166
      8 C8         -1.0292    5.6337    9.9172 C.2       1 <0>         0.1535
      9 S1         -1.0008    5.0919    8.2138 S.3       1 <0>         0.0078
     10 C9         -2.7692    5.0062    7.9720 C.2       1 <0>         0.0289
     11 N1         -3.2196    5.3725    9.1558 N.2       1 <0>        -0.4209
     12 S2         -3.6737    4.5456    6.5317 S.3       1 <0>         0.1312
     13 C10        -2.3054    4.2041    5.3971 C.3       1 <0>        -0.1787
     14 C11        -2.8557    3.7795    4.0600 C.2       1 <0>         0.5380
     15 O1         -4.0549    3.7141    3.8908 O.2       1 <0>        -0.5176
     16 N2         -2.0152    3.4723    3.0521 N.am      1 <0>        -0.7192
     17 C12        -2.5502    3.0595    1.7523 C.3       1 <0>         0.1270
     18 C13        -1.3936    2.7709    0.7932 C.3       1 <0>         0.0617
     19 H1         -0.7020    3.6129    0.7633 H         1 <0>         0.0795
     20 C14        -1.9281    2.4530   -0.6265 C.3       1 <0>        -0.1467
     21 C15        -0.7781    1.6063   -1.2241 C.3       1 <0>        -0.1566
     22 C16        -0.0127    1.0858    0.0080 C.3       1 <0>         0.0458
     23 O2         -0.7045    1.5588    1.1759 O.3       1 <0>        -0.3723
     24 N3          0.0310    5.9143   10.7791 N.pl3     1 <0>        -0.8112
     25 F1         -4.3562    7.2386   15.1541 F         1 <0>        -0.1385
     26 H2         -1.3113    5.1632   12.5688 H         1 <0>         0.1310
     27 H3         -2.1790    5.8564   14.7635 H         1 <0>         0.1388
     28 H4         -5.4767    7.7937   12.8650 H         1 <0>         0.1391
     29 H5         -4.6167    7.1183   10.6619 H         1 <0>         0.1389
     30 H6         -1.6857    3.4057    5.8051 H         1 <0>         0.1248
     31 H7         -1.7032    5.1041    5.2729 H         1 <0>         0.1244
     32 H8         -1.0561    3.5246    3.1875 H         1 <0>         0.4068
     33 H9         -3.1699    3.8580    1.3442 H         1 <0>         0.0879
     34 H10        -3.1524    2.1595    1.8764 H         1 <0>         0.0823
     35 H11        -2.0763    3.3679   -1.2003 H         1 <0>         0.0861
     36 H12        -2.8505    1.8746   -0.5744 H         1 <0>         0.0838
     37 H13        -0.1292    2.2265   -1.8424 H         1 <0>         0.0776
     38 H14        -1.1762    0.7745   -1.8053 H         1 <0>         0.0810
     39 H15         0.0021   -0.0041    0.0020 H         1 <0>         0.0860
     40 H16         1.0072    1.4702    0.0003 H         1 <0>         0.0605
     41 H17        -0.1462    6.1975   11.6898 H         1 <0>         0.4151
     42 H18         0.9455    5.8262   10.4678 H         1 <0>         0.4122
@<TRIPOS>BOND
     1    1    6 ar
     2    1    2 ar
     3    1   26 1
     4    2    3 ar
     5    2   27 1
     6    3    4 ar
     7    3   25 1
     8    4    5 ar
     9    4   28 1
    10    5    6 ar
    11    5   29 1
    12    6    7 1
    13    7   11 1
    14    7    8 2
    15    8    9 1
    16    8   24 1
    17    9   10 1
    18   10   11 2
    19   10   12 1
    20   12   13 1
    21   13   14 1
    22   13   30 1
    23   13   31 1
    24   14   15 2
    25   14   16 am
    26   16   17 1
    27   16   32 1
    28   17   18 1
    29   17   33 1
    30   17   34 1
    31   18   19 1
    32   18   23 1
    33   18   20 1
    34   20   21 1
    35   20   35 1
    36   20   36 1
    37   21   22 1
    38   21   37 1
    39   21   38 1
    40   22   23 1
    41   22   39 1
    42   22   40 1
    43   24   41 1
    44   24   42 1
@<TRIPOS>MOLECULE
ZINC42567968
   44    45     0     0     0
SMALL
USER_CHARGES

@<TRIPOS>ATOM
      1 C1         -0.0184    1.5028    0.0103 C.3       1 <0>        -0.1295
      2 C2          0.0021   -0.0041    0.0020 C.ar      1 <0>        -0.0908
      3 C3          0.0057   -0.6874   -1.2004 C.ar      1 <0>        -0.0712
      4 C4          0.0244   -2.0681   -1.2116 C.ar      1 <0>        -0.1648
      5 C5          0.0396   -2.7708   -0.0132 C.ar      1 <0>         0.2129
      6 C6          0.0359   -2.0814    1.1925 C.ar      1 <0>        -0.1430
      7 C7          0.0229   -0.7002    1.1965 C.ar      1 <0>        -0.1351
      8 C8          0.0251    0.0488    2.5042 C.3       1 <0>         0.5088
      9 F1          0.0475   -0.8638    3.5642 F         1 <0>        -0.1773
     10 F2          1.1570    0.8683    2.5703 F         1 <0>        -0.1746
     11 F3         -1.1273    0.8372    2.5919 F         1 <0>        -0.1743
     12 N1          0.0581   -4.1674   -0.0209 N.pl3     1 <0>        -0.7344
     13 C9          0.0614   -4.8929   -1.2936 C.3       1 <0>         0.1058
     14 C10         0.0824   -6.3759   -1.0264 C.2       1 <0>         0.5138
     15 O1          0.0935   -6.7863    0.1148 O.2       1 <0>        -0.5316
     16 N2          0.0889   -7.2460   -2.0556 N.am      1 <0>        -0.6102
     17 C11         0.0819   -6.7640   -3.4435 C.3       1 <0>         0.1032
     18 C12        -1.0804   -7.4266   -4.1898 C.3       1 <0>        -0.1176
     19 C13        -0.9686   -8.9468   -4.0530 C.3       1 <0>        -0.1097
     20 C14        -1.0588   -9.3357   -2.5756 C.3       1 <0>        -0.1263
     21 C15         0.1093   -8.6946   -1.8110 C.3       1 <0>         0.1127
     22 C16        -2.0913   -9.6032   -4.8144 C.2       1 <0>         0.5208
     23 O2         -2.9008   -8.9225   -5.4079 O.2       1 <0>        -0.5392
     24 N3         -2.1957  -10.9468   -4.8358 N.am      1 <0>        -0.8553
     25 H1          1.0042    1.8801    0.0026 H         1 <0>         0.0766
     26 H2         -0.5455    1.8639   -0.8728 H         1 <0>         0.0745
     27 H3         -0.5286    1.8543    0.9071 H         1 <0>         0.0716
     28 H4         -0.0065   -0.1406   -2.1317 H         1 <0>         0.1349
     29 H5          0.0269   -2.6011   -2.1509 H         1 <0>         0.1294
     30 H6          0.0473   -2.6246    2.1259 H         1 <0>         0.1375
     31 H7          0.0687   -4.6569    0.8164 H         1 <0>         0.4137
     32 H8         -0.8348   -4.6383   -1.8594 H         1 <0>         0.0938
     33 H9          0.9450   -4.6147   -1.8681 H         1 <0>         0.0935
     34 H10        -0.0470   -5.6817   -3.4538 H         1 <0>         0.0915
     35 H11         1.0232   -7.0265   -3.9263 H         1 <0>         0.0792
     36 H12        -2.0254   -7.0913   -3.7624 H         1 <0>         0.0782
     37 H13        -1.0395   -7.1522   -5.2439 H         1 <0>         0.0894
     38 H14        -0.0127   -9.2785   -4.4581 H         1 <0>         0.1034
     39 H15        -2.0041   -8.9825   -2.1634 H         1 <0>         0.0760
     40 H16        -1.0027  -10.4201   -2.4807 H         1 <0>         0.0829
     41 H17         1.0528   -9.1115   -2.1634 H         1 <0>         0.0755
     42 H18        -0.0014   -8.8866   -0.7438 H         1 <0>         0.0999
     43 H19        -1.5482  -11.4912   -4.3612 H         1 <0>         0.4018
     44 H20        -2.9183  -11.3693   -5.3259 H         1 <0>         0.4034
@<TRIPOS>BOND
     1    1    2 1
     2    1   25 1
     3    1   26 1
     4    1   27 1
     5    2    7 ar
     6    2    3 ar
     7    3    4 ar
     8    3   28 1
     9    4    5 ar
    10    4   29 1
    11    5    6 ar
    12    5   12 1
    13    6    7 ar
    14    6   30 1
    15    7    8 1
    16    8    9 1
    17    8   10 1
    18    8   11 1
    19   12   13 1
    20   12   31 1
    21   13   14 1
    22   13   32 1
    23   13   33 1
    24   14   15 2
    25   14   16 am
    26   16   21 1
    27   16   17 1
    28   17   18 1
    29   17   34 1
    30   17   35 1
    31   18   19 1
    32   18   36 1
    33   18   37 1
    34   19   20 1
    35   19   22 1
    36   19   38 1
    37   20   21 1
    38   20   39 1
    39   20   40 1
    40   21   41 1
    41   21   42 1
    42   22   23 2
    43   22   24 am
    44   24   43 1
    45   24   44 1
@<TRIPOS>MOLECULE
ZINC04225404
   50    52     0     0     0
SMALL
USER_CHARGES

@<TRIPOS>ATOM
      1 C1         -0.0184    1.5028    0.0103 C.3       1 <0>        -0.1241
      2 C2          0.0021   -0.0041    0.0020 C.ar      1 <0>        -0.0296
      3 C3          0.0056   -0.6844   -1.2083 C.ar      1 <0>        -0.1460
      4 C4          0.0240   -2.0499   -1.2381 C.ar      1 <0>        -0.0545
      5 C5          0.0395   -2.7695   -0.0386 C.ar      1 <0>        -0.1354
      6 C6          0.0600   -4.2334   -0.0339 C.2       1 <0>        -0.0030
      7 C7          0.0748   -4.8772    1.1594 C.2       1 <0>        -0.1852
      8 C8          0.0704   -4.1417    2.3639 C.2       1 <0>         0.5416
      9 O1          0.0843   -4.7402    3.4256 O.2       1 <0>        -0.5327
     10 N1          0.0517   -2.7973    2.3696 N.am      1 <0>        -0.6285
     11 H1          0.0495   -2.3228    3.2157 H         1 <0>         0.4157
     12 C9          0.0360   -2.0834    1.1904 C.ar      1 <0>         0.1909
     13 C10         0.0228   -0.6922    1.1957 C.ar      1 <0>        -0.1327
     14 C11         0.0254    0.0592    2.5020 C.3       1 <0>        -0.1187
     15 C12         0.0956   -6.3835    1.1996 C.3       1 <0>        -0.0740
     16 C13         1.5400   -6.8703    1.3316 C.3       1 <0>         0.1310
     17 N2          1.5602   -8.3347    1.3707 N.pl3     1 <0>        -0.6842
     18 C14         2.7326   -8.9897    1.4845 C.2       1 <0>         0.5623
     19 S1          4.1983   -8.1104    1.5834 S.2       1 <0>        -0.6430
     20 N3          2.7512  -10.3368    1.5205 N.pl3     1 <0>        -0.6797
     21 C15         4.0255  -11.0488    1.6442 C.3       1 <0>         0.1290
     22 C16         3.7676  -12.5568    1.6614 C.3       1 <0>         0.0641
     23 H2          3.2637  -12.8643    0.7451 H         1 <0>         0.0785
     24 C17         5.1010  -13.3286    1.8269 C.3       1 <0>        -0.1463
     25 C18         4.5966  -14.6578    2.4521 C.3       1 <0>        -0.1557
     26 C19         3.4113  -14.1827    3.3197 C.3       1 <0>         0.0502
     27 O2          2.9798  -12.9149    2.8079 O.3       1 <0>        -0.3809
     28 H3          1.0042    1.8801    0.0026 H         1 <0>         0.0787
     29 H4         -0.5455    1.8639   -0.8728 H         1 <0>         0.0732
     30 H5         -0.5286    1.8543    0.9071 H         1 <0>         0.0732
     31 H6         -0.0067   -0.1290   -2.1345 H         1 <0>         0.1312
     32 H7          0.0263   -2.5717   -2.1836 H         1 <0>         0.1363
     33 H8          0.0629   -4.7883   -0.9605 H         1 <0>         0.1467
     34 H9         -1.0015    0.2267    2.8269 H         1 <0>         0.0759
     35 H10         0.5543   -0.5242    3.2557 H         1 <0>         0.0631
     36 H11         0.5253    1.0185    2.3683 H         1 <0>         0.0805
     37 H12        -0.4849   -6.7322    2.0538 H         1 <0>         0.0897
     38 H13        -0.3380   -6.7775    0.2805 H         1 <0>         0.0832
     39 H14         2.1205   -6.5216    0.4775 H         1 <0>         0.0879
     40 H15         1.9737   -6.4763    2.2508 H         1 <0>         0.0919
     41 H16         0.7298   -8.8328    1.3147 H         1 <0>         0.3974
     42 H17         1.9207  -10.8350    1.4645 H         1 <0>         0.4006
     43 H18         4.6649  -10.7991    0.7975 H         1 <0>         0.1007
     44 H19         4.5181  -10.7538    2.5708 H         1 <0>         0.0944
     45 H20         5.5759  -13.5038    0.8616 H         1 <0>         0.0903
     46 H21         5.7755  -12.8064    2.5055 H         1 <0>         0.0877
     47 H22         4.2590  -15.3470    1.6780 H         1 <0>         0.0786
     48 H23         5.3705  -15.1145    3.0690 H         1 <0>         0.0869
     49 H24         2.5952  -14.9025    3.2568 H         1 <0>         0.0703
     50 H25         3.7316  -14.0747    4.3560 H         1 <0>         0.0726
@<TRIPOS>BOND
     1    1    2 1
     2    1   28 1
     3    1   29 1
     4    1   30 1
     5    2   13 ar
     6    2    3 ar
     7    3    4 ar
     8    3   31 1
     9    4    5 ar
    10    4   32 1
    11    5   12 ar
    12    5    6 1
    13    6    7 2
    14    6   33 1
    15    7    8 1
    16    7   15 1
    17    8    9 2
    18    8   10 am
    19   10   11 1
    20   10   12 1
    21   12   13 ar
    22   13   14 1
    23   14   34 1
    24   14   35 1
    25   14   36 1
    26   15   16 1
    27   15   37 1
    28   15   38 1
    29   16   17 1
    30   16   39 1
    31   16   40 1
    32   17   18 1
    33   17   41 1
    34   18   19 2
    35   18   20 1
    36   20   21 1
    37   20   42 1
    38   21   22 1
    39   21   43 1
    40   21   44 1
    41   22   23 1
    42   22   27 1
    43   22   24 1
    44   24   25 1
    45   24   45 1
    46   24   46 1
    47   25   26 1
    48   25   47 1
    49   25   48 1
    50   26   27 1
    51   26   49 1
    52   26   50 1
@<TRIPOS>MOLECULE
ZINC57176328
   54    56     0     0     0
SMALL
USER_CHARGES

@<TRIPOS>ATOM
      1 C1         -0.0166    1.3751    0.0096 C.ar      1 <0>        -0.1147
      2 C2          1.1740    2.0780    0.0020 C.ar      1 <0>        -0.1291
      3 C3          2.3723    1.3951   -0.0101 C.ar      1 <0>        -0.1026
      4 C4          2.3933    0.0061   -0.0172 C.ar      1 <0>        -0.0978
      5 C5          1.2078   -0.6937   -0.0148 C.ar      1 <0>        -0.0699
      6 C6          0.0021   -0.0041    0.0020 C.ar      1 <0>        -0.1281
      7 C7          1.1549   -2.1988   -0.0383 C.3       1 <0>        -0.0830
      8 C8          2.5009   -2.7904    0.3753 C.3       1 <0>        -0.1164
      9 C9          3.5989   -2.1301   -0.4667 C.3       1 <0>        -0.1250
     10 C10         3.7368   -0.6751   -0.0234 C.3       1 <0>         0.2057
     11 H1          4.1603   -0.6438    0.9805 H         1 <0>         0.1002
     12 N1          4.6309    0.0285   -0.9463 N.am      1 <0>        -0.7394
     13 C11         5.3211    1.1069   -0.5252 C.2       1 <0>         0.7040
     14 O1          5.2016    1.4957    0.6206 O.2       1 <0>        -0.5794
     15 N2          6.1437    1.7541   -1.3742 N.am      1 <0>        -0.7484
     16 C12         6.8939    2.9263   -0.9165 C.3       1 <0>         0.1533
     17 C13         7.7452    3.4680   -2.0666 C.3       1 <0>        -0.1544
     18 C14         8.5169    4.6737   -1.5958 C.2       1 <0>         0.5181
     19 O2          8.3978    5.0616   -0.4529 O.2       1 <0>        -0.5305
     20 N3          9.3395    5.3210   -2.4448 N.am      1 <0>        -0.7283
     21 C15        10.0897    6.4931   -1.9871 C.3       1 <0>         0.1440
     22 C16        11.3848    6.0379   -1.3114 C.3       1 <0>        -0.1290
     23 C17        12.1683    7.2620   -0.8334 C.3       1 <0>        -0.1184
     24 C18        12.5039    8.1525   -2.0315 C.3       1 <0>        -0.1227
     25 C19        11.2088    8.6077   -2.7072 C.3       1 <0>        -0.1170
     26 C20        10.4253    7.3836   -3.1852 C.3       1 <0>        -0.1260
     27 H2         -0.9580    1.9042    0.0259 H         1 <0>         0.1205
     28 H3          1.1658    3.1579    0.0052 H         1 <0>         0.1190
     29 H4          3.3020    1.9447   -0.0145 H         1 <0>         0.1318
     30 H5         -0.9284   -0.5523    0.0088 H         1 <0>         0.1203
     31 H6          0.3842   -2.5421    0.6519 H         1 <0>         0.0768
     32 H7          0.9093   -2.5341   -1.0459 H         1 <0>         0.0770
     33 H8          2.6797   -2.5923    1.4321 H         1 <0>         0.0706
     34 H9          2.4991   -3.8659    0.1981 H         1 <0>         0.0755
     35 H10         4.5434   -2.6519   -0.3126 H         1 <0>         0.0759
     36 H11         3.3258   -2.1683   -1.5213 H         1 <0>         0.0721
     37 H12         4.7263   -0.2817   -1.8604 H         1 <0>         0.3967
     38 H13         6.2390    1.4439   -2.2883 H         1 <0>         0.3955
     39 H14         6.1976    3.6969   -0.5857 H         1 <0>         0.0762
     40 H15         7.5419    2.6419   -0.0874 H         1 <0>         0.0767
     41 H16         8.4415    2.6974   -2.3975 H         1 <0>         0.1011
     42 H17         7.0972    3.7523   -2.8957 H         1 <0>         0.1010
     43 H18         9.4348    5.0107   -3.3589 H         1 <0>         0.4001
     44 H19         9.4862    7.0552   -1.2744 H         1 <0>         0.0891
     45 H20        11.1457    5.4035   -0.4579 H         1 <0>         0.0675
     46 H21        11.9883    5.4758   -2.0241 H         1 <0>         0.0631
     47 H22        11.5647    7.8241   -0.1207 H         1 <0>         0.0651
     48 H23        13.0909    6.9377   -0.3520 H         1 <0>         0.0657
     49 H24        13.0620    9.0246   -1.6909 H         1 <0>         0.0648
     50 H25        13.1074    7.5904   -2.7442 H         1 <0>         0.0626
     51 H26        10.6053    9.1698   -1.9945 H         1 <0>         0.0658
     52 H27        11.4479    9.2421   -3.5607 H         1 <0>         0.0679
     53 H28        11.0289    6.8215   -3.8979 H         1 <0>         0.0679
     54 H29         9.5027    7.7079   -3.6665 H         1 <0>         0.0686
@<TRIPOS>BOND
     1    1    6 ar
     2    1    2 ar
     3    1   27 1
     4    2    3 ar
     5    2   28 1
     6    3    4 ar
     7    3   29 1
     8    4   10 1
     9    4    5 ar
    10    5    6 ar
    11    5    7 1
    12    6   30 1
    13    7    8 1
    14    7   31 1
    15    7   32 1
    16    8    9 1
    17    8   33 1
    18    8   34 1
    19    9   10 1
    20    9   35 1
    21    9   36 1
    22   10   11 1
    23   10   12 1
    24   12   13 am
    25   12   37 1
    26   13   14 2
    27   13   15 am
    28   15   16 1
    29   15   38 1
    30   16   17 1
    31   16   39 1
    32   16   40 1
    33   17   18 1
    34   17   41 1
    35   17   42 1
    36   18   19 2
    37   18   20 am
    38   20   21 1
    39   20   43 1
    40   21   26 1
    41   21   22 1
    42   21   44 1
    43   22   23 1
    44   22   45 1
    45   22   46 1
    46   23   24 1
    47   23   47 1
    48   23   48 1
    49   24   25 1
    50   24   49 1
    51   24   50 1
    52   25   26 1
    53   25   51 1
    54   25   52 1
    55   26   53 1
    56   26   54 1
