@<TRIPOS>MOLECULE
CHEMBL227890
   50    52     0     0     0
SMALL
USER_CHARGES

@<TRIPOS>ATOM
      1 C1          1.9773    0.0955   -0.0092 C.3       1 <0>        -0.0463
      2 N1          0.5708   -0.0090    0.4016 N.4       1 <0>        -0.3793
      3 C2          0.4909   -0.0287    1.8671 C.3       1 <0>        -0.0163
      4 C3         -0.9762   -0.0557    2.3014 C.3       1 <0>        -0.1594
      5 C4         -1.6474   -1.3103    1.7352 C.3       1 <0>         0.1015
      6 C5         -1.4930   -1.3164    0.2116 C.3       1 <0>        -0.1264
      7 C6         -0.0068   -1.2426   -0.1453 C.3       1 <0>        -0.0089
      8 C7         -3.1112   -1.3039    2.0933 C.2       1 <0>         0.4955
      9 O1         -3.7935   -0.3226    1.8523 O.co2     1 <0>        -0.6806
     10 O2         -3.6133   -2.2800    2.6240 O.co2     1 <0>        -0.6418
     11 N2         -1.0093   -2.5033    2.2970 N.pl3     1 <0>        -1.0927
     12 S1         -0.8434   -2.6589    3.9373 S.o2      1 <0>         2.6880
     13 O3         -2.0014   -2.0765    4.5197 O.2       1 <0>        -0.9049
     14 O4         -0.4635   -4.0063    4.1811 O.2       1 <0>        -0.9581
     15 C8          0.5221   -1.6555    4.4203 C.ar      1 <0>        -0.7073
     16 C9          1.8193   -2.1153    4.2096 C.ar      1 <0>        -0.0199
     17 C10         2.8980   -1.3644    4.5718 C.ar      1 <0>        -0.1349
     18 C11         2.6968   -0.1107    5.1648 C.ar      1 <0>         0.0385
     19 C12         1.3757    0.3560    5.3781 C.ar      1 <0>        -0.1474
     20 C13         0.2923   -0.4372    4.9901 C.ar      1 <0>         0.0486
     21 C14         1.1997    1.6681    5.9983 C.ar      1 <0>         0.4356
     22 N3          2.2759    2.3680    6.3359 N.ar      1 <0>        -0.5229
     23 C15         3.5065    1.9226    6.1321 C.ar      1 <0>         0.1497
     24 C16         3.7676    0.7151    5.5620 C.ar      1 <0>        -0.1375
     25 Cl1         5.4071    0.1955    5.3261 Cl        1 <0>        -0.0516
     26 N4         -0.0458    2.1636    6.2252 N.2       1 <0>        -0.6413
     27 C17        -0.6151    2.0006    7.4016 C.2       1 <0>         0.6987
     28 N5          0.0870    1.4285    8.4287 N.pl3     1 <0>        -0.8726
     29 N6         -1.9092    2.4034    7.5977 N.pl3     1 <0>        -0.8246
     30 H1          2.0373    0.1169   -1.0974 H         1 <0>         0.1227
     31 H2          2.4072    1.0114    0.3964 H         1 <0>         0.1194
     32 H3          2.5309   -0.7641    0.3684 H         1 <0>         0.1180
     33 H4          0.9980   -0.9159    2.2463 H         1 <0>         0.1230
     34 H5          0.9718    0.8632    2.2688 H         1 <0>         0.1257
     35 H6         -1.0333   -0.0721    3.3898 H         1 <0>         0.1085
     36 H7         -1.4842    0.8312    1.9230 H         1 <0>         0.1191
     37 H8         -1.9195   -2.2338   -0.1939 H         1 <0>         0.1156
     38 H9         -2.0118   -0.4556   -0.2103 H         1 <0>         0.1074
     39 H10         0.1067   -1.2469   -1.2293 H         1 <0>         0.1306
     40 H11         0.5109   -2.1039    0.2768 H         1 <0>         0.1237
     41 H12        -0.6839   -3.2022    1.7082 H         1 <0>         0.4097
     42 H13         1.9733   -3.0816    3.7525 H         1 <0>         0.1415
     43 H14         3.8991   -1.7328    4.4036 H         1 <0>         0.1437
     44 H15        -0.7189   -0.0904    5.1440 H         1 <0>         0.1594
     45 H16         4.3377    2.5440    6.4311 H         1 <0>         0.1615
     46 H17         1.0255    1.2121    8.3133 H         1 <0>         0.4139
     47 H18        -0.3542    1.2395    9.2716 H         1 <0>         0.4055
     48 H19        -2.4065    2.8087    6.8702 H         1 <0>         0.4289
     49 H20        -2.3284    2.2834    8.4642 H         1 <0>         0.4150
     50 H21         0.0586    0.7859    0.0495 H         1 <0>         0.4253
@<TRIPOS>BOND
     1    1    2 1
     2    1   30 1
     3    1   31 1
     4    1   32 1
     5    2    7 1
     6    2    3 1
     7    2   50 1
     8    3    4 1
     9    3   33 1
    10    3   34 1
    11    4    5 1
    12    4   35 1
    13    4   36 1
    14    5    6 1
    15    5    8 1
    16    5   11 1
    17    6    7 1
    18    6   37 1
    19    6   38 1
    20    7   39 1
    21    7   40 1
    22    8    9 2
    23    8   10 1
    24   11   12 1
    25   11   41 1
    26   12   13 2
    27   12   14 2
    28   12   15 1
    29   15   20 ar
    30   15   16 ar
    31   16   17 ar
    32   16   42 1
    33   17   18 ar
    34   17   43 1
    35   18   24 ar
    36   18   19 ar
    37   19   20 ar
    38   19   21 ar
    39   20   44 1
    40   21   22 ar
    41   21   26 1
    42   22   23 ar
    43   23   24 ar
    44   23   45 1
    45   24   25 1
    46   26   27 2
    47   27   28 1
    48   27   29 1
    49   28   46 1
    50   28   47 1
    51   29   48 1
    52   29   49 1
@<TRIPOS>MOLECULE
CHEMBL321944
   41    43     0     0     0
SMALL
USER_CHARGES

@<TRIPOS>ATOM
      1 C1         -0.0173    1.4248    0.0099 C.3       1 <0>         0.0180
      2 O1          0.0021   -0.0041    0.0020 O.3       1 <0>        -0.3030
      3 C2         -1.2002   -0.6374    0.0101 C.ar      1 <0>         0.1611
      4 C3         -2.3768    0.1118    0.0195 C.ar      1 <0>        -0.1583
      5 C4         -3.5964   -0.4937    0.0277 C.ar      1 <0>        -0.0647
      6 C5         -3.6894   -1.8956    0.0263 C.ar      1 <0>        -0.0458
      7 C6         -4.9425   -2.5365    0.0342 C.ar      1 <0>        -0.0642
      8 C7         -5.0122   -3.8921    0.0323 C.ar      1 <0>        -0.1081
      9 C8         -3.8434   -4.6736    0.0226 C.ar      1 <0>        -0.1437
     10 C9         -2.5957   -4.0714    0.0146 C.ar      1 <0>        -0.0260
     11 C10        -2.5049   -2.6743    0.0164 C.ar      1 <0>        -0.0114
     12 C11        -1.2475   -2.0245    0.0031 C.ar      1 <0>        -0.0462
     13 C12         0.0049   -2.8166   -0.0126 C.2       1 <0>        -0.1690
     14 C13         0.4459   -3.6578   -1.0541 C.2       1 <0>         0.0897
     15 N1          1.5895   -4.1794   -0.6978 N.2       1 <0>        -0.2410
     16 N2          1.9227   -3.6974    0.5737 N.pl3     1 <0>        -0.7326
     17 C14         0.9453   -2.8601    0.9770 C.2       1 <0>         0.1062
     18 S1          3.2850   -4.0842    1.4321 S.o2      1 <0>         2.6000
     19 O2          2.9203   -3.9002    2.7931 O.2       1 <0>        -0.9234
     20 O3          3.6651   -5.3660    0.9508 O.2       1 <0>        -0.9073
     21 C15         4.5134   -2.8430    0.9412 C.3       1 <0>        -0.6531
     22 C16        -3.9466   -6.1485    0.0212 C.cat     1 <0>         0.6010
     23 N3         -4.9854   -6.7440    0.6049 N.pl3     1 <0>        -0.7577
     24 N4         -3.0008   -6.8818   -0.5637 N.pl3     1 <0>        -0.7599
     25 H1          1.0053    1.8021    0.0021 H         1 <0>         0.1096
     26 H2         -0.5445    1.7859   -0.8732 H         1 <0>         0.0636
     27 H3         -0.5275    1.7763    0.9067 H         1 <0>         0.0637
     28 H4         -2.3195    1.1903    0.0207 H         1 <0>         0.1468
     29 H5         -4.4949    0.1055    0.0357 H         1 <0>         0.1472
     30 H6         -5.8489   -1.9494    0.0421 H         1 <0>         0.1494
     31 H7         -5.9775   -4.3764    0.0388 H         1 <0>         0.1375
     32 H8         -1.7002   -4.6749    0.0071 H         1 <0>         0.1416
     33 H9         -0.0718   -3.8400   -1.9843 H         1 <0>         0.1979
     34 H10         0.9114   -2.3232    1.9135 H         1 <0>         0.1987
     35 H11         4.1462   -1.8484    1.1943 H         1 <0>         0.1365
     36 H12         5.4492   -3.0297    1.4680 H         1 <0>         0.1475
     37 H13         4.6830   -2.9050   -0.1338 H         1 <0>         0.1403
     38 H14        -5.6742   -6.2100    1.0308 H         1 <0>         0.4469
     39 H15        -2.2444   -6.4482   -0.9887 H         1 <0>         0.4456
     40 H16        -3.0685   -7.8494   -0.5645 H         1 <0>         0.4336
     41 H17        -5.0532   -7.7116    0.6040 H         1 <0>         0.4329
@<TRIPOS>BOND
     1    1    2 1
     2    1   25 1
     3    1   26 1
     4    1   27 1
     5    2    3 1
     6    3   12 ar
     7    3    4 ar
     8    4    5 ar
     9    4   28 1
    10    5    6 ar
    11    5   29 1
    12    6   11 ar
    13    6    7 ar
    14    7    8 ar
    15    7   30 1
    16    8    9 ar
    17    8   31 1
    18    9   10 ar
    19    9   22 1
    20   10   11 ar
    21   10   32 1
    22   11   12 ar
    23   12   13 1
    24   13   17 2
    25   13   14 1
    26   14   15 2
    27   14   33 1
    28   15   16 1
    29   16   17 1
    30   16   18 1
    31   17   34 1
    32   18   19 2
    33   18   20 2
    34   18   21 1
    35   21   35 1
    36   21   36 1
    37   21   37 1
    38   22   23 2
    39   22   24 1
    40   23   38 1
    41   23   41 1
    42   24   39 1
    43   24   40 1
@<TRIPOS>MOLECULE
CHEMBL283082
   29    30     0     0     0
SMALL
USER_CHARGES

@<TRIPOS>ATOM
      1 C1         -0.0225    1.8097    0.0120 C.3       1 <0>        -0.1903
      2 S1          0.0021   -0.0041    0.0020 S.3       1 <0>         0.0851
      3 C2         -1.7016   -0.4536    0.0159 C.2       1 <0>        -0.1774
      4 C3         -2.2487   -1.7306    0.0199 C.2       1 <0>        -0.0985
      5 C4         -3.6253   -1.8471    0.0320 C.2       1 <0>         0.0100
      6 C5         -4.3347   -0.6593    0.0389 C.2       1 <0>        -0.3442
      7 S2         -3.0384    0.5630    0.0347 S.3       1 <0>         0.3050
      8 C6         -5.7838   -0.4578    0.0518 C.cat     1 <0>         0.6526
      9 N1         -6.2870    0.7825    0.0570 N.pl3     1 <0>        -0.7730
     10 N2         -6.6063   -1.5138    0.0584 N.pl3     1 <0>        -0.7644
     11 C7         -1.3812   -2.9325    0.0111 C.ar      1 <0>        -0.0539
     12 C8         -0.3479   -3.0430   -0.9186 C.ar      1 <0>        -0.0998
     13 C9          0.4563   -4.1643   -0.9221 C.ar      1 <0>        -0.1117
     14 C10         0.2388   -5.1777   -0.0059 C.ar      1 <0>        -0.1039
     15 C11        -0.7851   -5.0739    0.9186 C.ar      1 <0>        -0.1147
     16 C12        -1.5917   -3.9543    0.9361 C.ar      1 <0>        -0.1026
     17 H1          1.0001    2.1870    0.0043 H         1 <0>         0.1342
     18 H2         -0.5497    2.1708   -0.8711 H         1 <0>         0.0979
     19 H3         -0.5327    2.1613    0.9088 H         1 <0>         0.0974
     20 H4         -4.1183   -2.8080    0.0354 H         1 <0>         0.1602
     21 H5         -7.2477    0.9161    0.0656 H         1 <0>         0.4354
     22 H6         -6.2417   -2.4126    0.0547 H         1 <0>         0.4441
     23 H7         -7.5670   -1.3802    0.0670 H         1 <0>         0.4347
     24 H8         -0.1777   -2.2528   -1.6348 H         1 <0>         0.1256
     25 H9          1.2570   -4.2510   -1.6417 H         1 <0>         0.1305
     26 H10         0.8706   -6.0536   -0.0126 H         1 <0>         0.1294
     27 H11        -0.9504   -5.8684    1.6313 H         1 <0>         0.1295
     28 H12        -2.3876   -3.8722    1.6614 H         1 <0>         0.1226
     29 H13        -5.6909    1.5478    0.0522 H         1 <0>         0.4406
@<TRIPOS>BOND
     1    1    2 1
     2    1   17 1
     3    1   18 1
     4    1   19 1
     5    2    3 1
     6    3    7 1
     7    3    4 2
     8    4    5 1
     9    4   11 1
    10    5    6 2
    11    5   20 1
    12    6    7 1
    13    6    8 1
    14    8    9 2
    15    8   10 1
    16    9   21 1
    17    9   29 1
    18   10   22 1
    19   10   23 1
    20   11   16 ar
    21   11   12 ar
    22   12   13 ar
    23   12   24 1
    24   13   14 ar
    25   13   25 1
    26   14   15 ar
    27   14   26 1
    28   15   16 ar
    29   15   27 1
    30   16   28 1
@<TRIPOS>MOLECULE
CHEMBL369042
   67    69     0     0     0
SMALL
USER_CHARGES

@<TRIPOS>ATOM
      1 C1         -0.1001   -0.3653   -0.4137 C.ar      1 <0>        -0.1057
      2 C2          1.0976    0.3134   -0.5391 C.ar      1 <0>        -0.1230
      3 C3          2.2938   -0.3737   -0.4517 C.ar      1 <0>        -0.0934
      4 C4          2.2924   -1.7395   -0.2385 C.ar      1 <0>        -0.1033
      5 C5          1.0947   -2.4181   -0.1121 C.ar      1 <0>        -0.0929
      6 C6         -0.1016   -1.7311   -0.2009 C.ar      1 <0>        -0.1227
      7 C7          3.5965   -2.4888   -0.1442 C.3       1 <0>         0.1290
      8 O1          4.0319   -2.5179    1.2166 O.3       1 <0>        -0.3540
      9 C8          5.1900   -3.1543    1.4744 C.2       1 <0>         0.6548
     10 O2          5.8140   -3.6710    0.5687 O.2       1 <0>        -0.5723
     11 N1          5.6572   -3.2183    2.7369 N.am      1 <0>        -0.6870
     12 C9          6.9174   -3.9109    3.0174 C.3       1 <0>         0.1566
     13 C10         6.6484   -5.4063    3.1971 C.3       1 <0>         0.0606
     14 O3          5.8394   -5.6088    4.3574 O.3       1 <0>        -0.5555
     15 C11         7.5261   -3.3548    4.2789 C.2       1 <0>         0.5531
     16 O4          6.9628   -2.4675    4.8840 O.2       1 <0>        -0.5127
     17 N2          8.6965   -3.8437    4.7346 N.am      1 <0>        -0.5997
     18 C12         9.4877   -4.9122    4.0975 C.3       1 <0>         0.0893
     19 C13        10.9378   -4.6792    4.5901 C.3       1 <0>        -0.1317
     20 C14        10.6998   -4.2184    6.0524 C.3       1 <0>        -0.1250
     21 C15         9.3989   -3.3953    5.9458 C.3       1 <0>         0.1238
     22 H1          9.6349   -2.3341    5.8661 H         1 <0>         0.1018
     23 C16         8.5386   -3.6422    7.1582 C.2       1 <0>         0.5064
     24 O5          7.4420   -4.1445    7.0315 O.2       1 <0>        -0.4840
     25 N3          8.9878   -3.3050    8.3833 N.am      1 <0>        -0.7269
     26 C17         8.1515   -3.5450    9.5619 C.3       1 <0>         0.1445
     27 C18         7.1915   -2.3689    9.7552 C.3       1 <0>        -0.1381
     28 C19         7.9931   -1.0755    9.9190 C.3       1 <0>        -0.1372
     29 C20         8.8813   -1.1840   11.1623 C.3       1 <0>         0.1085
     30 N4          9.7059   -2.3949   11.0503 N.pl3     1 <0>        -0.6363
     31 C21         9.0415   -3.6815   10.8013 C.3       1 <0>         0.3203
     32 O6         10.0254   -4.6929   10.5755 O.3       1 <0>        -0.5453
     33 C22        11.0663   -2.3257   11.1750 C.cat     1 <0>         0.7430
     34 N5         11.8449   -3.0907   10.4117 N.pl3     1 <0>        -0.7829
     35 N6         11.6125   -1.4932   12.0598 N.pl3     1 <0>        -0.7840
     36 H2         -1.0347    0.1723   -0.4775 H         1 <0>         0.1263
     37 H3          1.0987    1.3805   -0.7057 H         1 <0>         0.1269
     38 H4          3.2296    0.1564   -0.5504 H         1 <0>         0.1245
     39 H5          1.0935   -3.4852    0.0542 H         1 <0>         0.1248
     40 H6         -1.0373   -2.2613   -0.1026 H         1 <0>         0.1272
     41 H7          3.4564   -3.5086   -0.5026 H         1 <0>         0.0798
     42 H8          4.3478   -1.9889   -0.7555 H         1 <0>         0.0797
     43 H9          5.1591   -2.8059    3.4599 H         1 <0>         0.4203
     44 H10         7.6062   -3.7629    2.1857 H         1 <0>         0.1298
     45 H11         6.1277   -5.7898    2.3196 H         1 <0>         0.0671
     46 H12         7.5947   -5.9337    3.3174 H         1 <0>         0.0650
     47 H13         5.6289   -6.5360    4.5332 H         1 <0>         0.3834
     48 H14         9.1308   -5.8909    4.4180 H         1 <0>         0.0792
     49 H15         9.4372   -4.8258    3.0121 H         1 <0>         0.0888
     50 H16        11.5137   -5.6042    4.5607 H         1 <0>         0.0958
     51 H17        11.4270   -3.8976    4.0088 H         1 <0>         0.0863
     52 H18        10.5645   -5.0770    6.7101 H         1 <0>         0.0853
     53 H19        11.5224   -3.5923    6.3981 H         1 <0>         0.0890
     54 H20         9.8649   -2.9033    8.4847 H         1 <0>         0.3867
     55 H21         7.5799   -4.4625    9.4217 H         1 <0>         0.1217
     56 H22         6.5404   -2.2849    8.8851 H         1 <0>         0.0971
     57 H23         6.5866   -2.5365   10.6463 H         1 <0>         0.0870
     58 H24         8.6169   -0.9202    9.0387 H         1 <0>         0.0762
     59 H25         7.3084   -0.2352   10.0332 H         1 <0>         0.1011
     60 H26         9.5261   -0.3077   11.2284 H         1 <0>         0.0965
     61 H27         8.2566   -1.2485   12.0532 H         1 <0>         0.1019
     62 H28         8.4298   -3.9496   11.6627 H         1 <0>         0.1219
     63 H29        10.5718   -4.8897   11.3487 H         1 <0>         0.3943
     64 H30        11.4537   -3.6289    9.7058 H         1 <0>         0.4444
     65 H31        11.0503   -0.8850   12.5647 H         1 <0>         0.4408
     66 H32        12.5724   -1.4952   12.1992 H         1 <0>         0.4388
     67 H33        12.8030   -3.1097   10.5616 H         1 <0>         0.4341
@<TRIPOS>BOND
     1    1    6 ar
     2    1    2 ar
     3    1   36 1
     4    2    3 ar
     5    2   37 1
     6    3    4 ar
     7    3   38 1
     8    4    5 ar
     9    4    7 1
    10    5    6 ar
    11    5   39 1
    12    6   40 1
    13    7    8 1
    14    7   41 1
    15    7   42 1
    16    8    9 1
    17    9   10 2
    18    9   11 am
    19   11   12 1
    20   11   43 1
    21   12   13 1
    22   12   15 1
    23   12   44 1
    24   13   14 1
    25   13   45 1
    26   13   46 1
    27   14   47 1
    28   15   16 2
    29   15   17 am
    30   17   21 1
    31   17   18 1
    32   18   19 1
    33   18   48 1
    34   18   49 1
    35   19   20 1
    36   19   50 1
    37   19   51 1
    38   20   21 1
    39   20   52 1
    40   20   53 1
    41   21   22 1
    42   21   23 1
    43   23   24 2
    44   23   25 am
    45   25   26 1
    46   25   54 1
    47   26   31 1
    48   26   27 1
    49   26   55 1
    50   27   28 1
    51   27   56 1
    52   27   57 1
    53   28   29 1
    54   28   58 1
    55   28   59 1
    56   29   30 1
    57   29   60 1
    58   29   61 1
    59   30   31 1
    60   30   33 1
    61   31   32 1
    62   31   62 1
    63   32   63 1
    64   33   34 2
    65   33   35 1
    66   34   64 1
    67   34   67 1
    68   35   65 1
    69   35   66 1
@<TRIPOS>MOLECULE
CHEMBL369042__1
   67    69     0     0     0
SMALL
USER_CHARGES

@<TRIPOS>ATOM
      1 C1          3.6794    3.1295   -0.8915 C.ar      1 <0>        -0.1059
      2 C2          4.9382    3.6351   -0.6256 C.ar      1 <0>        -0.1228
      3 C3          6.0074    2.7750   -0.4587 C.ar      1 <0>        -0.0931
      4 C4          5.8178    1.4093   -0.5572 C.ar      1 <0>        -0.1030
      5 C5          4.5588    0.9036   -0.8223 C.ar      1 <0>        -0.0932
      6 C6          3.4898    1.7638   -0.9906 C.ar      1 <0>        -0.1231
      7 C7          6.9836    0.4716   -0.3763 C.3       1 <0>         0.1289
      8 O1          7.0985    0.1151    1.0028 O.3       1 <0>        -0.3543
      9 C8          8.0979   -0.7232    1.3361 C.2       1 <0>         0.6546
     10 O2          8.8519   -1.1407    0.4796 O.2       1 <0>        -0.5721
     11 N1          8.2620   -1.0994    2.6199 N.am      1 <0>        -0.6868
     12 C9          9.3494   -2.0116    2.9827 C.3       1 <0>         0.1563
     13 C10         8.8947   -3.4570    2.7707 C.3       1 <0>         0.0609
     14 O3          7.8303   -3.7590    3.6751 O.3       1 <0>        -0.5556
     15 C11         9.7148   -1.8071    4.4303 C.2       1 <0>         0.5526
     16 O4          9.1249   -0.9808    5.0937 O.2       1 <0>        -0.5135
     17 N2         10.6970   -2.5425    4.9878 N.am      1 <0>        -0.5996
     18 C12        11.4963   -3.5720    4.2987 C.3       1 <0>         0.0901
     19 C13        12.8157   -3.6559    5.1060 C.3       1 <0>        -0.1323
     20 C14        12.3057   -3.4577    6.5579 C.3       1 <0>        -0.1227
     21 C15        11.1533   -2.4465    6.3821 C.3       1 <0>         0.1240
     22 H1         11.5091   -1.4368    6.5870 H         1 <0>         0.1059
     23 C16        10.0230   -2.7942    7.3163 C.2       1 <0>         0.5112
     24 O5          8.9367   -3.0946    6.8684 O.2       1 <0>        -0.4936
     25 N3         10.2194   -2.7712    8.6495 N.am      1 <0>        -0.7272
     26 C17         9.1206   -3.1092    9.5576 C.3       1 <0>         0.1471
     27 C18         8.2680   -1.8643    9.8134 C.3       1 <0>        -0.1375
     28 C19         7.1010   -2.2238   10.7359 C.3       1 <0>        -0.1365
     29 C20         7.6498   -2.7181   12.0780 C.3       1 <0>         0.1067
     30 N4          8.5845   -3.8239   11.8284 N.pl3     1 <0>        -0.6315
     31 C21         9.6923   -3.6135   10.8864 C.3       1 <0>         0.3213
     32 O6         10.3814   -4.8472   10.6740 O.3       1 <0>        -0.5443
     33 C22         8.4266   -5.0263   12.4612 C.cat     1 <0>         0.7456
     34 N5          8.0134   -5.0635   13.7269 N.pl3     1 <0>        -0.7838
     35 N6          8.6861   -6.1598   11.8117 N.pl3     1 <0>        -0.7812
     36 H2          2.8432    3.8013   -1.0175 H         1 <0>         0.1261
     37 H3          5.0864    4.7021   -0.5486 H         1 <0>         0.1270
     38 H4          6.9910    3.1700   -0.2516 H         1 <0>         0.1248
     39 H5          4.4107   -0.1634   -0.8996 H         1 <0>         0.1245
     40 H6          2.5063    1.3688   -1.1980 H         1 <0>         0.1269
     41 H7          6.8229   -0.4271   -0.9717 H         1 <0>         0.0796
     42 H8          7.8999    0.9642   -0.7018 H         1 <0>         0.0799
     43 H9          7.6601   -0.7661    3.3037 H         1 <0>         0.4201
     44 H10        10.2182   -1.8085    2.3565 H         1 <0>         0.1301
     45 H11         8.5466   -3.5817    1.7453 H         1 <0>         0.0667
     46 H12         9.7307   -4.1317    2.9552 H         1 <0>         0.0655
     47 H13         7.4916   -4.6613    3.5966 H         1 <0>         0.3818
     48 H14        10.9780   -4.5307    4.3182 H         1 <0>         0.0773
     49 H15        11.6988   -3.2701    3.2711 H         1 <0>         0.0878
     50 H16        13.2852   -4.6324    4.9868 H         1 <0>         0.0947
     51 H17        13.5003   -2.8574    4.8199 H         1 <0>         0.0867
     52 H18        11.9391   -4.3980    6.9696 H         1 <0>         0.0833
     53 H19        13.0901   -3.0391    7.1884 H         1 <0>         0.0949
     54 H20        11.0882   -2.5309    9.0077 H         1 <0>         0.4029
     55 H21         8.5036   -3.8873    9.1084 H         1 <0>         0.1039
     56 H22         8.8802   -1.0955   10.2850 H         1 <0>         0.0787
     57 H23         7.8801   -1.4890    8.8665 H         1 <0>         0.0968
     58 H24         6.4811   -1.3422   10.8988 H         1 <0>         0.1045
     59 H25         6.5025   -3.0101   10.2758 H         1 <0>         0.0799
     60 H26         8.1723   -1.9045   12.5811 H         1 <0>         0.1013
     61 H27         6.8277   -3.0684   12.7022 H         1 <0>         0.0989
     62 H28        10.3814   -2.8729   11.2923 H         1 <0>         0.1099
     63 H29        10.7693   -5.2241   11.4756 H         1 <0>         0.3913
     64 H30         7.8244   -4.2380   14.1998 H         1 <0>         0.4407
     65 H31         8.8324   -6.1468   10.8529 H         1 <0>         0.4491
     66 H32         8.7286   -6.9983   12.2975 H         1 <0>         0.4337
     67 H33         7.9014   -5.9161   14.1756 H         1 <0>         0.4390
@<TRIPOS>BOND
     1    1    6 ar
     2    1    2 ar
     3    1   36 1
     4    2    3 ar
     5    2   37 1
     6    3    4 ar
     7    3   38 1
     8    4    5 ar
     9    4    7 1
    10    5    6 ar
    11    5   39 1
    12    6   40 1
    13    7    8 1
    14    7   41 1
    15    7   42 1
    16    8    9 1
    17    9   10 2
    18    9   11 am
    19   11   12 1
    20   11   43 1
    21   12   13 1
    22   12   15 1
    23   12   44 1
    24   13   14 1
    25   13   45 1
    26   13   46 1
    27   14   47 1
    28   15   16 2
    29   15   17 am
    30   17   21 1
    31   17   18 1
    32   18   19 1
    33   18   48 1
    34   18   49 1
    35   19   20 1
    36   19   50 1
    37   19   51 1
    38   20   21 1
    39   20   52 1
    40   20   53 1
    41   21   22 1
    42   21   23 1
    43   23   24 2
    44   23   25 am
    45   25   26 1
    46   25   54 1
    47   26   31 1
    48   26   27 1
    49   26   55 1
    50   27   28 1
    51   27   56 1
    52   27   57 1
    53   28   29 1
    54   28   58 1
    55   28   59 1
    56   29   30 1
    57   29   60 1
    58   29   61 1
    59   30   31 1
    60   30   33 1
    61   31   32 1
    62   31   62 1
    63   32   63 1
    64   33   34 2
    65   33   35 1
    66   34   64 1
    67   34   67 1
    68   35   65 1
    69   35   66 1
@<TRIPOS>MOLECULE
CHEMBL369042__2
   67    69     0     0     0
SMALL
USER_CHARGES

@<TRIPOS>ATOM
      1 C1          1.7953    3.0089   -0.3951 C.ar      1 <0>        -0.1060
      2 C2          3.0300    3.6044   -0.2170 C.ar      1 <0>        -0.1230
      3 C3          4.1716    2.8265   -0.1657 C.ar      1 <0>        -0.0932
      4 C4          4.0783    1.4531   -0.2921 C.ar      1 <0>        -0.1028
      5 C5          2.8435    0.8575   -0.4693 C.ar      1 <0>        -0.0931
      6 C6          1.7021    1.6355   -0.5220 C.ar      1 <0>        -0.1230
      7 C7          5.3229    0.6051   -0.2372 C.3       1 <0>         0.1287
      8 O1          5.5799    0.2234    1.1157 O.3       1 <0>        -0.3547
      9 C8          6.6644   -0.5425    1.3392 C.2       1 <0>         0.6544
     10 O2          7.3732   -0.8777    0.4109 O.2       1 <0>        -0.5717
     11 N1          6.9638   -0.9374    2.5925 N.am      1 <0>        -0.6867
     12 C9          8.1439   -1.7708    2.8357 C.3       1 <0>         0.1561
     13 C10         7.7838   -3.2415    2.6155 C.3       1 <0>         0.0607
     14 O3          6.8251   -3.6488    3.5938 O.3       1 <0>        -0.5559
     15 C11         8.6130   -1.5756    4.2544 C.2       1 <0>         0.5530
     16 O4          8.0201   -0.8151    4.9900 O.2       1 <0>        -0.5150
     17 N2          9.6916   -2.2460    4.7059 N.am      1 <0>        -0.5994
     18 C12        10.5057   -3.1919    3.9211 C.3       1 <0>         0.0896
     19 C13        11.8909   -3.1931    4.6147 C.3       1 <0>        -0.1320
     20 C14        11.4911   -3.0725    6.1090 C.3       1 <0>        -0.1243
     21 C15        10.2548   -2.1503    6.0606 C.3       1 <0>         0.1245
     22 H1         10.5490   -1.1215    6.2679 H         1 <0>         0.1057
     23 C16         9.2366   -2.6091    7.0725 C.2       1 <0>         0.5111
     24 O5          8.1424   -2.9820    6.7056 O.2       1 <0>        -0.4933
     25 N3          9.5420   -2.6050    8.3852 N.am      1 <0>        -0.7271
     26 C17         8.5522   -3.0509    9.3689 C.3       1 <0>         0.1451
     27 C18         8.6233   -4.5730    9.5111 C.3       1 <0>        -0.1345
     28 C19         7.5674   -5.0432   10.5142 C.3       1 <0>        -0.1373
     29 C20         7.8534   -4.4159   11.8822 C.3       1 <0>         0.1080
     30 N4          7.9305   -2.9569   11.7266 N.pl3     1 <0>        -0.6335
     31 C21         8.8493   -2.4010   10.7239 C.3       1 <0>         0.3212
     32 O6          8.6577   -0.9880   10.6298 O.3       1 <0>        -0.5436
     33 C22         7.1611   -2.1319   12.5003 C.cat     1 <0>         0.7464
     34 N5          6.6344   -1.0268   11.9755 N.pl3     1 <0>        -0.7767
     35 N6          6.9387   -2.4337   13.7784 N.pl3     1 <0>        -0.7865
     36 H2          0.9029    3.6163   -0.4307 H         1 <0>         0.1261
     37 H3          3.1029    4.6774   -0.1183 H         1 <0>         0.1269
     38 H4          5.1363    3.2917   -0.0273 H         1 <0>         0.1248
     39 H5          2.7706   -0.2155   -0.5684 H         1 <0>         0.1247
     40 H6          0.7374    1.1703   -0.6608 H         1 <0>         0.1269
     41 H7          5.1813   -0.2879   -0.8460 H         1 <0>         0.0798
     42 H8          6.1686    1.1759   -0.6206 H         1 <0>         0.0800
     43 H9          6.3980   -0.6698    3.3335 H         1 <0>         0.4197
     44 H10         8.9390   -1.4845    2.1474 H         1 <0>         0.1302
     45 H11         7.3612   -3.3667    1.6186 H         1 <0>         0.0667
     46 H12         8.6810   -3.8532    2.7093 H         1 <0>         0.0660
     47 H13         6.5503   -4.5725    3.5144 H         1 <0>         0.3824
     48 H14        10.0650   -4.1883    3.9523 H         1 <0>         0.0781
     49 H15        10.5978   -2.8489    2.8906 H         1 <0>         0.0879
     50 H16        12.4214   -4.1264    4.4262 H         1 <0>         0.0955
     51 H17        12.4865   -2.3364    4.2993 H         1 <0>         0.0866
     52 H18        11.2327   -4.0488    6.5191 H         1 <0>         0.0835
     53 H19        12.2918   -2.6102    6.6863 H         1 <0>         0.0955
     54 H20        10.4171   -2.3067    8.6786 H         1 <0>         0.4026
     55 H21         7.5546   -2.7622    9.0378 H         1 <0>         0.1049
     56 H22         8.4365   -5.0374    8.5428 H         1 <0>         0.0934
     57 H23         9.6137   -4.8587    9.8656 H         1 <0>         0.0789
     58 H24         6.5789   -4.7362   10.1726 H         1 <0>         0.0803
     59 H25         7.6030   -6.1295   10.5975 H         1 <0>         0.1039
     60 H26         7.0501   -4.6676   12.5747 H         1 <0>         0.0981
     61 H27         8.8012   -4.7930   12.2662 H         1 <0>         0.1008
     62 H28         9.8783   -2.6138   11.0135 H         1 <0>         0.1097
     63 H29         8.9069   -0.5033   11.4285 H         1 <0>         0.3936
     64 H30         6.7192   -0.8532   11.0249 H         1 <0>         0.4496
     65 H31         7.2616   -3.2731   14.1418 H         1 <0>         0.4399
     66 H32         6.4539   -1.8141   14.3457 H         1 <0>         0.4389
     67 H33         6.1661   -0.3956   12.5439 H         1 <0>         0.4333
@<TRIPOS>BOND
     1    1    6 ar
     2    1    2 ar
     3    1   36 1
     4    2    3 ar
     5    2   37 1
     6    3    4 ar
     7    3   38 1
     8    4    5 ar
     9    4    7 1
    10    5    6 ar
    11    5   39 1
    12    6   40 1
    13    7    8 1
    14    7   41 1
    15    7   42 1
    16    8    9 1
    17    9   10 2
    18    9   11 am
    19   11   12 1
    20   11   43 1
    21   12   13 1
    22   12   15 1
    23   12   44 1
    24   13   14 1
    25   13   45 1
    26   13   46 1
    27   14   47 1
    28   15   16 2
    29   15   17 am
    30   17   21 1
    31   17   18 1
    32   18   19 1
    33   18   48 1
    34   18   49 1
    35   19   20 1
    36   19   50 1
    37   19   51 1
    38   20   21 1
    39   20   52 1
    40   20   53 1
    41   21   22 1
    42   21   23 1
    43   23   24 2
    44   23   25 am
    45   25   26 1
    46   25   54 1
    47   26   31 1
    48   26   27 1
    49   26   55 1
    50   27   28 1
    51   27   56 1
    52   27   57 1
    53   28   29 1
    54   28   58 1
    55   28   59 1
    56   29   30 1
    57   29   60 1
    58   29   61 1
    59   30   31 1
    60   30   33 1
    61   31   32 1
    62   31   62 1
    63   32   63 1
    64   33   34 2
    65   33   35 1
    66   34   64 1
    67   34   67 1
    68   35   65 1
    69   35   66 1
@<TRIPOS>MOLECULE
CHEMBL369042__3
   67    69     0     0     0
SMALL
USER_CHARGES

@<TRIPOS>ATOM
      1 C1         -0.0167    1.3781    0.0096 C.ar      1 <0>        -0.1061
      2 C2          1.1709    2.0855    0.0021 C.ar      1 <0>        -0.1230
      3 C3          2.3773    1.4107   -0.0130 C.ar      1 <0>        -0.0933
      4 C4          2.3960    0.0285   -0.0201 C.ar      1 <0>        -0.1027
      5 C5          1.2084   -0.6789   -0.0117 C.ar      1 <0>        -0.0932
      6 C6          0.0021   -0.0041    0.0020 C.ar      1 <0>        -0.1230
      7 C7          3.7112   -0.7071   -0.0376 C.3       1 <0>         0.1287
      8 O1          4.1410   -0.9464    1.3041 O.3       1 <0>        -0.3547
      9 C8          5.3077   -1.5988    1.4650 C.2       1 <0>         0.6544
     10 O2          5.9435   -1.9553    0.4929 O.2       1 <0>        -0.5714
     11 N1          5.7703   -1.8565    2.7044 N.am      1 <0>        -0.6868
     12 C9          7.0397   -2.5664    2.8795 C.3       1 <0>         0.1561
     13 C10         6.7932   -4.0752    2.8168 C.3       1 <0>         0.0607
     14 O3          5.9823   -4.4718    3.9245 O.3       1 <0>        -0.5561
     15 C11         7.6343   -2.2098    4.2176 C.2       1 <0>         0.5536
     16 O4          7.0547   -1.4386    4.9525 O.2       1 <0>        -0.5169
     17 N2          8.8101   -2.7480    4.5975 N.am      1 <0>        -0.5991
     18 C12         9.6205   -3.6896    3.8037 C.3       1 <0>         0.0895
     19 C13        11.0647   -3.5171    4.3369 C.3       1 <0>        -0.1320
     20 C14        10.8132   -3.2988    5.8523 C.3       1 <0>        -0.1238
     21 C15         9.5002   -2.4882    5.8695 C.3       1 <0>         0.1246
     22 H1          9.7201   -1.4246    5.9614 H         1 <0>         0.1053
     23 C16         8.6384   -2.9378    7.0211 C.2       1 <0>         0.5083
     24 O5          7.5503   -3.4294    6.8086 O.2       1 <0>        -0.4947
     25 N3          9.0770   -2.7937    8.2874 N.am      1 <0>        -0.7276
     26 C17         8.2393   -3.2307    9.4069 C.3       1 <0>         0.1564
     27 C18         8.4623   -4.7236    9.6594 C.3       1 <0>        -0.1352
     28 C19         7.5633   -5.1884   10.8074 C.3       1 <0>        -0.1378
     29 C20         7.9320   -4.4222   12.0817 C.3       1 <0>         0.1074
     30 N4          7.8602   -2.9811   11.8045 N.pl3     1 <0>        -0.6253
     31 C21         8.6157   -2.4423   10.6654 C.3       1 <0>         0.3133
     32 O6         10.0166   -2.5761   10.9133 O.3       1 <0>        -0.5404
     33 C22         7.1040   -2.1568   12.5918 C.cat     1 <0>         0.7528
     34 N5          5.9588   -2.5972   13.1100 N.pl3     1 <0>        -0.7797
     35 N6          7.5130   -0.9138   12.8402 N.pl3     1 <0>        -0.7872
     36 H2         -0.9591    1.9053    0.0259 H         1 <0>         0.1261
     37 H3          1.1563    3.1654    0.0076 H         1 <0>         0.1269
     38 H4          3.3051    1.9634   -0.0196 H         1 <0>         0.1248
     39 H5          1.2231   -1.7588   -0.0176 H         1 <0>         0.1248
     40 H6         -0.9258   -0.5567    0.0082 H         1 <0>         0.1270
     41 H7          3.5884   -1.6586   -0.5549 H         1 <0>         0.0798
     42 H8          4.4573   -0.1052   -0.5563 H         1 <0>         0.0800
     43 H9          5.2627   -1.5719    3.4805 H         1 <0>         0.4196
     44 H10         7.7298   -2.2778    2.0867 H         1 <0>         0.1303
     45 H11         6.2823   -4.3214    1.8859 H         1 <0>         0.0668
     46 H12         7.7470   -4.6012    2.8579 H         1 <0>         0.0661
     47 H13         5.7854   -5.4182    3.9489 H         1 <0>         0.3826
     48 H14         9.2774   -4.7120    3.9617 H         1 <0>         0.0783
     49 H15         9.5735   -3.4320    2.7456 H         1 <0>         0.0880
     50 H16        11.6549   -4.4170    4.1645 H         1 <0>         0.0957
     51 H17        11.5443   -2.6457    3.8910 H         1 <0>         0.0867
     52 H18        10.6882   -4.2531    6.3639 H         1 <0>         0.0839
     53 H19        11.6244   -2.7239    6.2990 H         1 <0>         0.0961
     54 H20         9.9473   -2.4005    8.4574 H         1 <0>         0.4085
     55 H21         7.1907   -3.0544    9.1672 H         1 <0>         0.1090
     56 H22         8.2186   -5.2848    8.7573 H         1 <0>         0.0861
     57 H23         9.5059   -4.8954    9.9229 H         1 <0>         0.0845
     58 H24         6.5210   -4.9941   10.5548 H         1 <0>         0.0775
     59 H25         7.7055   -6.2566   10.9712 H         1 <0>         0.1007
     60 H26         7.2312   -4.6768   12.8768 H         1 <0>         0.0928
     61 H27         8.9449   -4.6857   12.3863 H         1 <0>         0.1054
     62 H28         8.3660   -1.3905   10.5259 H         1 <0>         0.0975
     63 H29        10.3244   -2.1010   11.6973 H         1 <0>         0.3915
     64 H30         5.6610   -3.5025   12.9291 H         1 <0>         0.4427
     65 H31         8.3470   -0.5931   12.4628 H         1 <0>         0.4378
     66 H32         6.9767   -0.3293   13.3985 H         1 <0>         0.4413
     67 H33         5.4226   -2.0127   13.6683 H         1 <0>         0.4405
@<TRIPOS>BOND
     1    1    6 ar
     2    1    2 ar
     3    1   36 1
     4    2    3 ar
     5    2   37 1
     6    3    4 ar
     7    3   38 1
     8    4    5 ar
     9    4    7 1
    10    5    6 ar
    11    5   39 1
    12    6   40 1
    13    7    8 1
    14    7   41 1
    15    7   42 1
    16    8    9 1
    17    9   10 2
    18    9   11 am
    19   11   12 1
    20   11   43 1
    21   12   13 1
    22   12   15 1
    23   12   44 1
    24   13   14 1
    25   13   45 1
    26   13   46 1
    27   14   47 1
    28   15   16 2
    29   15   17 am
    30   17   21 1
    31   17   18 1
    32   18   19 1
    33   18   48 1
    34   18   49 1
    35   19   20 1
    36   19   50 1
    37   19   51 1
    38   20   21 1
    39   20   52 1
    40   20   53 1
    41   21   22 1
    42   21   23 1
    43   23   24 2
    44   23   25 am
    45   25   26 1
    46   25   54 1
    47   26   31 1
    48   26   27 1
    49   26   55 1
    50   27   28 1
    51   27   56 1
    52   27   57 1
    53   28   29 1
    54   28   58 1
    55   28   59 1
    56   29   30 1
    57   29   60 1
    58   29   61 1
    59   30   31 1
    60   30   33 1
    61   31   32 1
    62   31   62 1
    63   32   63 1
    64   33   34 2
    65   33   35 1
    66   34   64 1
    67   34   67 1
    68   35   65 1
    69   35   66 1
@<TRIPOS>MOLECULE
CHEMBL369042__4
   67    69     0     0     0
SMALL
USER_CHARGES

@<TRIPOS>ATOM
      1 C1          0.2915   -3.4802   -3.0676 C.ar      1 <0>        -0.1057
      2 C2          1.0226   -2.3105   -2.9771 C.ar      1 <0>        -0.1225
      3 C3          2.3512   -2.3535   -2.5976 C.ar      1 <0>        -0.0926
      4 C4          2.9484   -3.5661   -2.3081 C.ar      1 <0>        -0.1031
      5 C5          2.2170   -4.7357   -2.3978 C.ar      1 <0>        -0.0936
      6 C6          0.8888   -4.6928   -2.7786 C.ar      1 <0>        -0.1233
      7 C7          4.3970   -3.6131   -1.8954 C.3       1 <0>         0.1289
      8 O1          4.4912   -3.4990   -0.4740 O.3       1 <0>        -0.3541
      9 C8          5.7267   -3.5237    0.0606 C.2       1 <0>         0.6550
     10 O2          6.6983   -3.6390   -0.6600 O.2       1 <0>        -0.5717
     11 N1          5.8857   -3.4205    1.3949 N.am      1 <0>        -0.6871
     12 C9          7.2300   -3.4474    1.9767 C.3       1 <0>         0.1581
     13 C10         7.8281   -2.0395    1.9441 C.3       1 <0>         0.0650
     14 O3          7.0470   -1.1710    2.7673 O.3       1 <0>        -0.5607
     15 C11         7.1505   -3.9265    3.4033 C.2       1 <0>         0.5511
     16 O4          6.1294   -3.7715    4.0390 O.2       1 <0>        -0.5050
     17 N2          8.2142   -4.5273    3.9726 N.am      1 <0>        -0.6042
     18 C12         9.5453   -4.6807    3.3578 C.3       1 <0>         0.0886
     19 C13        10.5189   -4.8334    4.5529 C.3       1 <0>        -0.1299
     20 C14         9.6681   -5.6725    5.5426 C.3       1 <0>        -0.1253
     21 C15         8.2410   -5.1324    5.3122 C.3       1 <0>         0.1237
     22 H1          8.0016   -4.3801    6.0637 H         1 <0>         0.1040
     23 C16         7.2497   -6.2653    5.3828 C.2       1 <0>         0.5112
     24 O5          6.5805   -6.5469    4.4113 O.2       1 <0>        -0.4990
     25 N3          7.1067   -6.9654    6.5255 N.am      1 <0>        -0.7244
     26 C17         6.1430   -8.0667    6.5942 C.3       1 <0>         0.1434
     27 C18         4.7581   -7.5129    6.9372 C.3       1 <0>        -0.1384
     28 C19         4.8209   -6.7691    8.2732 C.3       1 <0>        -0.1371
     29 C20         5.2383   -7.7454    9.3775 C.3       1 <0>         0.1086
     30 N4          6.4989   -8.3908    8.9864 N.pl3     1 <0>        -0.6352
     31 C21         6.5754   -9.0576    7.6794 C.3       1 <0>         0.3194
     32 O6          7.9185   -9.4799    7.4349 O.3       1 <0>        -0.5454
     33 C22         7.5810   -8.3708    9.8229 C.cat     1 <0>         0.7429
     34 N5          8.8083   -8.2434    9.3214 N.pl3     1 <0>        -0.7836
     35 N6          7.4073   -8.4787   11.1391 N.pl3     1 <0>        -0.7837
     36 H2         -0.7477   -3.4461   -3.3597 H         1 <0>         0.1263
     37 H3          0.5560   -1.3631   -3.2032 H         1 <0>         0.1274
     38 H4          2.9226   -1.4398   -2.5275 H         1 <0>         0.1251
     39 H5          2.6837   -5.6831   -2.1720 H         1 <0>         0.1241
     40 H6          0.3175   -5.6066   -2.8491 H         1 <0>         0.1266
     41 H7          4.8350   -4.5591   -2.2137 H         1 <0>         0.0794
     42 H8          4.9349   -2.7882   -2.3626 H         1 <0>         0.0800
     43 H9          5.1101   -3.3284    1.9701 H         1 <0>         0.4201
     44 H10         7.8616   -4.1238    1.4008 H         1 <0>         0.1247
     45 H11         8.8516   -2.0708    2.3176 H         1 <0>         0.0627
     46 H12         7.8264   -1.6676    0.9195 H         1 <0>         0.0711
     47 H13         7.3689   -0.2596    2.7940 H         1 <0>         0.3859
     48 H14         9.5728   -5.5713    2.7299 H         1 <0>         0.0796
     49 H15         9.7976   -3.7958    2.7736 H         1 <0>         0.0875
     50 H16        11.4190   -5.3724    4.2572 H         1 <0>         0.0964
     51 H17        10.7694   -3.8620    4.9793 H         1 <0>         0.0859
     52 H18         9.7271   -6.7332    5.2986 H         1 <0>         0.0856
     53 H19         9.9843   -5.4940    6.5704 H         1 <0>         0.0897
     54 H20         7.6419   -6.7402    7.3025 H         1 <0>         0.3884
     55 H21         6.1034   -8.5760    5.6313 H         1 <0>         0.1220
     56 H22         4.4375   -6.8260    6.1539 H         1 <0>         0.0966
     57 H23         4.0466   -8.3352    7.0124 H         1 <0>         0.0878
     58 H24         5.5504   -5.9619    8.2063 H         1 <0>         0.0765
     59 H25         3.8397   -6.3550    8.5055 H         1 <0>         0.1017
     60 H26         5.3806   -7.2016   10.3114 H         1 <0>         0.0980
     61 H27         4.4650   -8.5025    9.5073 H         1 <0>         0.1014
     62 H28         5.9112   -9.9218    7.6707 H         1 <0>         0.1218
     63 H29         8.2243  -10.1810    8.0265 H         1 <0>         0.3954
     64 H30         8.9299   -8.0722    8.3744 H         1 <0>         0.4439
     65 H31         6.5231   -8.6503   11.4992 H         1 <0>         0.4416
     66 H32         8.1650   -8.3857   11.7375 H         1 <0>         0.4385
     67 H33         9.5805   -8.3217    9.9031 H         1 <0>         0.4340
@<TRIPOS>BOND
     1    1    6 ar
     2    1    2 ar
     3    1   36 1
     4    2    3 ar
     5    2   37 1
     6    3    4 ar
     7    3   38 1
     8    4    5 ar
     9    4    7 1
    10    5    6 ar
    11    5   39 1
    12    6   40 1
    13    7    8 1
    14    7   41 1
    15    7   42 1
    16    8    9 1
    17    9   10 2
    18    9   11 am
    19   11   12 1
    20   11   43 1
    21   12   13 1
    22   12   15 1
    23   12   44 1
    24   13   14 1
    25   13   45 1
    26   13   46 1
    27   14   47 1
    28   15   16 2
    29   15   17 am
    30   17   21 1
    31   17   18 1
    32   18   19 1
    33   18   48 1
    34   18   49 1
    35   19   20 1
    36   19   50 1
    37   19   51 1
    38   20   21 1
    39   20   52 1
    40   20   53 1
    41   21   22 1
    42   21   23 1
    43   23   24 2
    44   23   25 am
    45   25   26 1
    46   25   54 1
    47   26   31 1
    48   26   27 1
    49   26   55 1
    50   27   28 1
    51   27   56 1
    52   27   57 1
    53   28   29 1
    54   28   58 1
    55   28   59 1
    56   29   30 1
    57   29   60 1
    58   29   61 1
    59   30   31 1
    60   30   33 1
    61   31   32 1
    62   31   62 1
    63   32   63 1
    64   33   34 2
    65   33   35 1
    66   34   64 1
    67   34   67 1
    68   35   65 1
    69   35   66 1
@<TRIPOS>MOLECULE
CHEMBL369042__5
   67    69     0     0     0
SMALL
USER_CHARGES

@<TRIPOS>ATOM
      1 C1          0.9256   -0.6409   -0.3069 C.ar      1 <0>        -0.1059
      2 C2          1.6790    0.4872   -0.0413 C.ar      1 <0>        -0.1220
      3 C3          3.0213    0.3654    0.2660 C.ar      1 <0>        -0.0923
      4 C4          3.6100   -0.8846    0.3081 C.ar      1 <0>        -0.1027
      5 C5          2.8564   -2.0128    0.0434 C.ar      1 <0>        -0.0941
      6 C6          1.5145   -1.8909   -0.2653 C.ar      1 <0>        -0.1237
      7 C7          5.0735   -1.0173    0.6421 C.3       1 <0>         0.1289
      8 O1          5.2285   -1.1601    2.0555 O.3       1 <0>        -0.3546
      9 C8          6.4845   -1.2909    2.5226 C.2       1 <0>         0.6548
     10 O2          7.4233   -1.2839    1.7512 O.2       1 <0>        -0.5720
     11 N1          6.7004   -1.4295    3.8457 N.am      1 <0>        -0.6865
     12 C9          8.0670   -1.5717    4.3540 C.3       1 <0>         0.1581
     13 C10         8.6862   -0.1860    4.5469 C.3       1 <0>         0.0652
     14 O3          7.9430    0.5349    5.5318 O.3       1 <0>        -0.5598
     15 C11         8.0389   -2.2977    5.6743 C.2       1 <0>         0.5496
     16 O4          7.0629   -2.2174    6.3898 O.2       1 <0>        -0.5046
     17 N2          9.0984   -3.0360    6.0600 N.am      1 <0>        -0.6044
     18 C12        10.3846   -3.1319    5.3459 C.3       1 <0>         0.0896
     19 C13        11.4115   -3.5395    6.4317 C.3       1 <0>        -0.1305
     20 C14        10.5719   -4.5071    7.3070 C.3       1 <0>        -0.1231
     21 C15         9.1651   -3.8743    7.2660 C.3       1 <0>         0.1237
     22 H1          9.0064   -3.2610    8.1530 H         1 <0>         0.1081
     23 C16         8.1204   -4.9582    7.1952 C.2       1 <0>         0.5160
     24 O5          7.3861   -5.0307    6.2327 O.2       1 <0>        -0.5085
     25 N3          8.0022   -5.8470    8.2015 N.am      1 <0>        -0.7247
     26 C17         6.9867   -6.9006    8.1326 C.3       1 <0>         0.1455
     27 C18         5.6535   -6.3600    8.6545 C.3       1 <0>        -0.1375
     28 C19         4.5840   -7.4499    8.5524 C.3       1 <0>        -0.1366
     29 C20         4.9939   -8.6446    9.4193 C.3       1 <0>         0.1073
     30 N4          6.3390   -9.0798    9.0193 N.pl3     1 <0>        -0.6330
     31 C21         7.4238   -8.0891    8.9947 C.3       1 <0>         0.3217
     32 O6          8.5991   -8.6795    8.4362 O.3       1 <0>        -0.5446
     33 C22         6.5770  -10.3825    8.6768 C.cat     1 <0>         0.7458
     34 N5          5.9675  -11.3664    9.3360 N.pl3     1 <0>        -0.7838
     35 N6          7.4182  -10.6671    7.6841 N.pl3     1 <0>        -0.7803
     36 H2         -0.1241   -0.5461   -0.5426 H         1 <0>         0.1262
     37 H3          1.2191    1.4638   -0.0741 H         1 <0>         0.1276
     38 H4          3.6101    1.2469    0.4729 H         1 <0>         0.1255
     39 H5          3.3165   -2.9894    0.0759 H         1 <0>         0.1235
     40 H6          0.9258   -2.7723   -0.4725 H         1 <0>         0.1261
     41 H7          5.4824   -1.8949    0.1413 H         1 <0>         0.0789
     42 H8          5.6050   -0.1268    0.3065 H         1 <0>         0.0802
     43 H9          5.9509   -1.4350    4.4615 H         1 <0>         0.4200
     44 H10         8.6630   -2.1398    3.6396 H         1 <0>         0.1236
     45 H11         9.7194   -0.2926    4.8774 H         1 <0>         0.0630
     46 H12         8.6611    0.3579    3.6026 H         1 <0>         0.0703
     47 H13         8.2801    1.4244    5.7058 H         1 <0>         0.3859
     48 H14        10.3312   -3.8945    4.5689 H         1 <0>         0.0776
     49 H15        10.6516   -2.1673    4.9142 H         1 <0>         0.0866
     50 H16        12.2647   -4.0536    5.9892 H         1 <0>         0.0953
     51 H17        11.7356   -2.6728    7.0080 H         1 <0>         0.0864
     52 H18        10.5616   -5.5076    6.8747 H         1 <0>         0.0836
     53 H19        10.9518   -4.5311    8.3284 H         1 <0>         0.0955
     54 H20         8.5896   -5.7890    8.9713 H         1 <0>         0.4044
     55 H21         6.8686   -7.2251    7.0988 H         1 <0>         0.1042
     56 H22         5.7665   -6.0585    9.6958 H         1 <0>         0.0797
     57 H23         5.3524   -5.4988    8.0580 H         1 <0>         0.0964
     58 H24         3.6295   -7.0569    8.9024 H         1 <0>         0.1049
     59 H25         4.4880   -7.7693    7.5147 H         1 <0>         0.0798
     60 H26         5.0023   -8.3490   10.4684 H         1 <0>         0.1014
     61 H27         4.2871   -9.4615    9.2734 H         1 <0>         0.0991
     62 H28         7.6304   -7.7482   10.0092 H         1 <0>         0.1106
     63 H29         8.9316   -9.4396    8.9330 H         1 <0>         0.3920
     64 H30         5.3549  -11.1592   10.0590 H         1 <0>         0.4409
     65 H31         7.7704   -9.9549    7.1277 H         1 <0>         0.4489
     66 H32         7.6785  -11.5866    7.5176 H         1 <0>         0.4338
     67 H33         6.1363  -12.2902    9.0931 H         1 <0>         0.4391
@<TRIPOS>BOND
     1    1    6 ar
     2    1    2 ar
     3    1   36 1
     4    2    3 ar
     5    2   37 1
     6    3    4 ar
     7    3   38 1
     8    4    5 ar
     9    4    7 1
    10    5    6 ar
    11    5   39 1
    12    6   40 1
    13    7    8 1
    14    7   41 1
    15    7   42 1
    16    8    9 1
    17    9   10 2
    18    9   11 am
    19   11   12 1
    20   11   43 1
    21   12   13 1
    22   12   15 1
    23   12   44 1
    24   13   14 1
    25   13   45 1
    26   13   46 1
    27   14   47 1
    28   15   16 2
    29   15   17 am
    30   17   21 1
    31   17   18 1
    32   18   19 1
    33   18   48 1
    34   18   49 1
    35   19   20 1
    36   19   50 1
    37   19   51 1
    38   20   21 1
    39   20   52 1
    40   20   53 1
    41   21   22 1
    42   21   23 1
    43   23   24 2
    44   23   25 am
    45   25   26 1
    46   25   54 1
    47   26   31 1
    48   26   27 1
    49   26   55 1
    50   27   28 1
    51   27   56 1
    52   27   57 1
    53   28   29 1
    54   28   58 1
    55   28   59 1
    56   29   30 1
    57   29   60 1
    58   29   61 1
    59   30   31 1
    60   30   33 1
    61   31   32 1
    62   31   62 1
    63   32   63 1
    64   33   34 2
    65   33   35 1
    66   34   64 1
    67   34   67 1
    68   35   65 1
    69   35   66 1
@<TRIPOS>MOLECULE
CHEMBL369042__6
   67    69     0     0     0
SMALL
USER_CHARGES

@<TRIPOS>ATOM
      1 C1          1.1618   -0.4392   -1.1836 C.ar      1 <0>        -0.1061
      2 C2          1.9499    0.6166   -0.7652 C.ar      1 <0>        -0.1222
      3 C3          3.2578    0.3920   -0.3783 C.ar      1 <0>        -0.0924
      4 C4          3.7776   -0.8886   -0.4094 C.ar      1 <0>        -0.1025
      5 C5          2.9893   -1.9445   -0.8270 C.ar      1 <0>        -0.0941
      6 C6          1.6818   -1.7197   -1.2152 C.ar      1 <0>        -0.1238
      7 C7          5.2038   -1.1333    0.0114 C.3       1 <0>         0.1287
      8 O1          5.2465   -1.4071    1.4133 O.3       1 <0>        -0.3549
      9 C8          6.4562   -1.6496    1.9522 C.2       1 <0>         0.6545
     10 O2          7.4487   -1.6293    1.2513 O.2       1 <0>        -0.5713
     11 N1          6.5665   -1.9149    3.2690 N.am      1 <0>        -0.6867
     12 C9          7.8828   -2.1788    3.8553 C.3       1 <0>         0.1578
     13 C10         8.5557   -0.8527    4.2157 C.3       1 <0>         0.0649
     14 O3          7.7892   -0.1876    5.2218 O.3       1 <0>        -0.5607
     15 C11         7.7204   -3.0140    5.0991 C.2       1 <0>         0.5509
     16 O4          6.6840   -2.9707    5.7276 O.2       1 <0>        -0.5071
     17 N2          8.7269   -3.8090    5.5132 N.am      1 <0>        -0.6040
     18 C12        10.0718   -3.8755    4.9130 C.3       1 <0>         0.0889
     19 C13        10.9868   -4.4002    6.0475 C.3       1 <0>        -0.1303
     20 C14        10.0535   -5.4179    6.7550 C.3       1 <0>        -0.1246
     21 C15         8.6674   -4.7489    6.6422 C.3       1 <0>         0.1243
     22 H1          8.4379   -4.2100    7.5614 H         1 <0>         0.1078
     23 C16         7.6155   -5.7962    6.3823 C.2       1 <0>         0.5160
     24 O5          6.9721   -5.7676    5.3546 O.2       1 <0>        -0.5083
     25 N3          7.3895   -6.7646    7.2920 N.am      1 <0>        -0.7246
     26 C17         6.3669   -7.7828    7.0394 C.3       1 <0>         0.1442
     27 C18         6.9691   -8.9157    6.2052 C.3       1 <0>        -0.1353
     28 C19         5.8930   -9.9639    5.9129 C.3       1 <0>        -0.1372
     29 C20         5.3869  -10.5523    7.2337 C.3       1 <0>         0.1082
     30 N4          4.9394   -9.4535    8.1003 N.pl3     1 <0>        -0.6323
     31 C21         5.8662   -8.3465    8.3729 C.3       1 <0>         0.3203
     32 O6          5.1872   -7.3217    9.1015 O.3       1 <0>        -0.5437
     33 C22         3.6836   -9.4607    8.6426 C.cat     1 <0>         0.7462
     34 N5          3.0039   -8.3217    8.7635 N.pl3     1 <0>        -0.7773
     35 N6          3.1406  -10.6068    9.0497 N.pl3     1 <0>        -0.7863
     36 H2          0.1386   -0.2644   -1.4817 H         1 <0>         0.1261
     37 H3          1.5438    1.6171   -0.7409 H         1 <0>         0.1275
     38 H4          3.8737    1.2170   -0.0521 H         1 <0>         0.1255
     39 H5          3.3955   -2.9449   -0.8516 H         1 <0>         0.1237
     40 H6          1.0660   -2.5446   -1.5418 H         1 <0>         0.1261
     41 H7          5.6034   -1.9859   -0.5376 H         1 <0>         0.0793
     42 H8          5.8032   -0.2488   -0.2044 H         1 <0>         0.0803
     43 H9          5.7742   -1.9311    3.8284 H         1 <0>         0.4196
     44 H10         8.5003   -2.7156    3.1352 H         1 <0>         0.1246
     45 H11         9.5602   -1.0456    4.5924 H         1 <0>         0.0636
     46 H12         8.6152   -0.2225    3.3284 H         1 <0>         0.0705
     47 H13         8.1579    0.6621    5.4995 H         1 <0>         0.3860
     48 H14        10.0774   -4.5672    4.0706 H         1 <0>         0.0785
     49 H15        10.3940   -2.8845    4.5934 H         1 <0>         0.0866
     50 H16        11.8683   -4.8958    5.6408 H         1 <0>         0.0961
     51 H17        11.2709   -3.5945    6.7244 H         1 <0>         0.0863
     52 H18        10.0660   -6.3771    6.2375 H         1 <0>         0.0838
     53 H19        10.3368   -5.5388    7.8006 H         1 <0>         0.0961
     54 H20         7.9040   -6.7875    8.1140 H         1 <0>         0.4041
     55 H21         5.5336   -7.3349    6.4979 H         1 <0>         0.1051
     56 H22         7.3483   -8.5130    5.2659 H         1 <0>         0.0933
     57 H23         7.7865   -9.3787    6.7579 H         1 <0>         0.0798
     58 H24         5.0640   -9.4960    5.3818 H         1 <0>         0.0802
     59 H25         6.3166  -10.7588    5.2991 H         1 <0>         0.1045
     60 H26         4.5528  -11.2261    7.0378 H         1 <0>         0.0993
     61 H27         6.1933  -11.0985    7.7231 H         1 <0>         0.1004
     62 H28         6.7117   -8.7127    8.9553 H         1 <0>         0.1098
     63 H29         4.9287   -7.5808    9.9966 H         1 <0>         0.3946
     64 H30         3.3587   -7.5025    8.3841 H         1 <0>         0.4491
     65 H31         3.6637  -11.4235    9.0350 H         1 <0>         0.4406
     66 H32         2.2221  -10.6247    9.3609 H         1 <0>         0.4387
     67 H33         2.1540   -8.3114    9.2309 H         1 <0>         0.4331
@<TRIPOS>BOND
     1    1    6 ar
     2    1    2 ar
     3    1   36 1
     4    2    3 ar
     5    2   37 1
     6    3    4 ar
     7    3   38 1
     8    4    5 ar
     9    4    7 1
    10    5    6 ar
    11    5   39 1
    12    6   40 1
    13    7    8 1
    14    7   41 1
    15    7   42 1
    16    8    9 1
    17    9   10 2
    18    9   11 am
    19   11   12 1
    20   11   43 1
    21   12   13 1
    22   12   15 1
    23   12   44 1
    24   13   14 1
    25   13   45 1
    26   13   46 1
    27   14   47 1
    28   15   16 2
    29   15   17 am
    30   17   21 1
    31   17   18 1
    32   18   19 1
    33   18   48 1
    34   18   49 1
    35   19   20 1
    36   19   50 1
    37   19   51 1
    38   20   21 1
    39   20   52 1
    40   20   53 1
    41   21   22 1
    42   21   23 1
    43   23   24 2
    44   23   25 am
    45   25   26 1
    46   25   54 1
    47   26   31 1
    48   26   27 1
    49   26   55 1
    50   27   28 1
    51   27   56 1
    52   27   57 1
    53   28   29 1
    54   28   58 1
    55   28   59 1
    56   29   30 1
    57   29   60 1
    58   29   61 1
    59   30   31 1
    60   30   33 1
    61   31   32 1
    62   31   62 1
    63   32   63 1
    64   33   34 2
    65   33   35 1
    66   34   64 1
    67   34   67 1
    68   35   65 1
    69   35   66 1
@<TRIPOS>MOLECULE
CHEMBL369042__7
   67    69     0     0     0
SMALL
USER_CHARGES

@<TRIPOS>ATOM
      1 C1         -0.0568   -3.0146   -1.9196 C.ar      1 <0>        -0.1061
      2 C2          0.5732   -1.7895   -1.8048 C.ar      1 <0>        -0.1222
      3 C3          1.9139   -1.7301   -1.4733 C.ar      1 <0>        -0.0923
      4 C4          2.6245   -2.8957   -1.2560 C.ar      1 <0>        -0.1024
      5 C5          1.9943   -4.1208   -1.3698 C.ar      1 <0>        -0.0941
      6 C6          0.6540   -4.1803   -1.7028 C.ar      1 <0>        -0.1238
      7 C7          4.0863   -2.8310   -0.8955 C.3       1 <0>         0.1286
      8 O1          4.2240   -2.7646    0.5253 O.3       1 <0>        -0.3550
      9 C8          5.4763   -2.7013    1.0157 C.2       1 <0>         0.6544
     10 O2          6.4263   -2.7023    0.2580 O.2       1 <0>        -0.5709
     11 N1          5.6762   -2.6367    2.3470 N.am      1 <0>        -0.6869
     12 C9          7.0388   -2.5677    2.8806 C.3       1 <0>         0.1577
     13 C10         7.5110   -1.1124    2.8871 C.3       1 <0>         0.0651
     14 O3          6.6985   -0.3520    3.7836 O.3       1 <0>        -0.5607
     15 C11         7.0552   -3.1074    4.2876 C.2       1 <0>         0.5514
     16 O4          6.0558   -3.0471    4.9719 O.2       1 <0>        -0.5084
     17 N2          8.1806   -3.6572    4.7854 N.am      1 <0>        -0.6038
     18 C12         9.4903   -3.6944    4.1096 C.3       1 <0>         0.0890
     19 C13        10.5240   -3.8292    5.2554 C.3       1 <0>        -0.1303
     20 C14         9.7755   -4.7640    6.2420 C.3       1 <0>        -0.1242
     21 C15         8.3069   -4.3134    6.0949 C.3       1 <0>         0.1244
     22 H1          8.0518   -3.6104    6.8880 H         1 <0>         0.1074
     23 C16         7.3969   -5.5130    6.1570 C.2       1 <0>         0.5131
     24 O5          6.7053   -5.7995    5.2028 O.2       1 <0>        -0.5097
     25 N3          7.3515   -6.2674    7.2730 N.am      1 <0>        -0.7250
     26 C17         6.4668   -7.4335    7.3333 C.3       1 <0>         0.1551
     27 C18         7.1764   -8.6450    6.7244 C.3       1 <0>        -0.1360
     28 C19         6.2410   -9.8559    6.7571 C.3       1 <0>        -0.1379
     29 C20         5.8869  -10.1834    8.2111 C.3       1 <0>         0.1075
     30 N4          5.3367   -8.9784    8.8468 N.pl3     1 <0>        -0.6256
     31 C21         6.1153   -7.7335    8.7939 C.3       1 <0>         0.3136
     32 O6          7.3157   -7.8867    9.5538 O.3       1 <0>        -0.5404
     33 C22         4.1223   -9.0147    9.4754 C.cat     1 <0>         0.7528
     34 N5          3.1471   -9.7849    8.9961 N.pl3     1 <0>        -0.7796
     35 N6          3.9152   -8.2799   10.5669 N.pl3     1 <0>        -0.7870
     36 H2         -1.1053   -3.0609   -2.1742 H         1 <0>         0.1261
     37 H3          0.0180   -0.8788   -1.9746 H         1 <0>         0.1276
     38 H4          2.4062   -0.7730   -1.3843 H         1 <0>         0.1255
     39 H5          2.5495   -5.0315   -1.2004 H         1 <0>         0.1238
     40 H6          0.1617   -5.1374   -1.7921 H         1 <0>         0.1261
     41 H7          4.5923   -3.7215   -1.2684 H         1 <0>         0.0794
     42 H8          4.5326   -1.9442   -1.3456 H         1 <0>         0.0803
     43 H9          4.9179   -2.6359    2.9518 H         1 <0>         0.4194
     44 H10         7.7044   -3.1629    2.2554 H         1 <0>         0.1245
     45 H11         8.5502   -1.0691    3.2130 H         1 <0>         0.0637
     46 H12         7.4279   -0.6990    1.8820 H         1 <0>         0.0705
     47 H13         6.9416    0.5823    3.8383 H         1 <0>         0.3859
     48 H14         9.5488   -4.5547    3.4428 H         1 <0>         0.0786
     49 H15         9.6573   -2.7712    3.5547 H         1 <0>         0.0867
     50 H16        11.4438   -4.2932    4.8993 H         1 <0>         0.0962
     51 H17        10.7284   -2.8613    5.7132 H         1 <0>         0.0862
     52 H18         9.8937   -5.8074    5.9495 H         1 <0>         0.0841
     53 H19        10.1245   -4.6065    7.2625 H         1 <0>         0.0968
     54 H20         7.9046   -6.0382    8.0362 H         1 <0>         0.4101
     55 H21         5.5541   -7.2270    6.7745 H         1 <0>         0.1092
     56 H22         7.4496   -8.4250    5.6924 H         1 <0>         0.0861
     57 H23         8.0761   -8.8656    7.2988 H         1 <0>         0.0855
     58 H24         5.3303   -9.6271    6.2035 H         1 <0>         0.0774
     59 H25         6.7385  -10.7123    6.3021 H         1 <0>         0.1012
     60 H26         5.1444  -10.9809    8.2356 H         1 <0>         0.0930
     61 H27         6.7840  -10.5000    8.7433 H         1 <0>         0.1057
     62 H28         5.5234   -6.9147    9.2029 H         1 <0>         0.0980
     63 H29         7.1669   -8.0788   10.4898 H         1 <0>         0.3920
     64 H30         3.2979  -10.3200    8.2012 H         1 <0>         0.4427
     65 H31         4.6255   -7.7191   10.9159 H         1 <0>         0.4379
     66 H32         3.0541   -8.3057   11.0126 H         1 <0>         0.4414
     67 H33         2.2860   -9.8107    9.4419 H         1 <0>         0.4406
@<TRIPOS>BOND
     1    1    6 ar
     2    1    2 ar
     3    1   36 1
     4    2    3 ar
     5    2   37 1
     6    3    4 ar
     7    3   38 1
     8    4    5 ar
     9    4    7 1
    10    5    6 ar
    11    5   39 1
    12    6   40 1
    13    7    8 1
    14    7   41 1
    15    7   42 1
    16    8    9 1
    17    9   10 2
    18    9   11 am
    19   11   12 1
    20   11   43 1
    21   12   13 1
    22   12   15 1
    23   12   44 1
    24   13   14 1
    25   13   45 1
    26   13   46 1
    27   14   47 1
    28   15   16 2
    29   15   17 am
    30   17   21 1
    31   17   18 1
    32   18   19 1
    33   18   48 1
    34   18   49 1
    35   19   20 1
    36   19   50 1
    37   19   51 1
    38   20   21 1
    39   20   52 1
    40   20   53 1
    41   21   22 1
    42   21   23 1
    43   23   24 2
    44   23   25 am
    45   25   26 1
    46   25   54 1
    47   26   31 1
    48   26   27 1
    49   26   55 1
    50   27   28 1
    51   27   56 1
    52   27   57 1
    53   28   29 1
    54   28   58 1
    55   28   59 1
    56   29   30 1
    57   29   60 1
    58   29   61 1
    59   30   31 1
    60   30   33 1
    61   31   32 1
    62   31   62 1
    63   32   63 1
    64   33   34 2
    65   33   35 1
    66   34   64 1
    67   34   67 1
    68   35   65 1
    69   35   66 1
@<TRIPOS>MOLECULE
CHEMBL147427
   43    45     0     0     0
SMALL
USER_CHARGES

@<TRIPOS>ATOM
      1 C1         -0.0173    1.4248    0.0099 C.3       1 <0>         0.0231
      2 O1          0.0021   -0.0041    0.0020 O.3       1 <0>        -0.3032
      3 C2         -1.2012   -0.6379    0.0101 C.ar      1 <0>         0.1157
      4 C3         -2.3734    0.1023    0.0195 C.ar      1 <0>        -0.1719
      5 C4         -3.5965   -0.5372    0.0277 C.ar      1 <0>        -0.0938
      6 C5         -3.6554   -1.9296    0.0266 C.ar      1 <0>        -0.0344
      7 C6         -2.4776   -2.6747    0.0167 C.ar      1 <0>        -0.1392
      8 C7         -1.2539   -2.0292    0.0031 C.ar      1 <0>         0.0952
      9 O2         -0.1030   -2.7535   -0.0113 O.3       1 <0>        -0.3025
     10 C8         -0.2320   -4.1766   -0.0177 C.3       1 <0>         0.0272
     11 C9         -4.9697   -2.6177    0.0364 C.2       1 <0>         0.1083
     12 C10        -6.1274   -1.8951   -0.0616 C.2       1 <0>        -0.1816
     13 S1         -7.3433   -3.2047    0.0008 S.3       1 <0>         0.0646
     14 C11        -6.1961   -4.5674    0.1496 C.2       1 <0>         0.1361
     15 N1         -5.0320   -3.9349    0.1345 N.2       1 <0>        -0.4835
     16 C12        -6.4721   -6.0131    0.2556 C.2       1 <0>        -0.0608
     17 C13        -5.4417   -6.9302    0.3711 C.2       1 <0>         0.0361
     18 C14        -5.8180   -8.2567    0.4634 C.2       1 <0>        -0.3407
     19 S2         -7.5952   -8.1616    0.3845 S.3       1 <0>         0.3335
     20 C15        -7.7773   -6.4975    0.2485 C.2       1 <0>        -0.1799
     21 S3         -9.2746   -5.5774    0.1222 S.3       1 <0>         0.0931
     22 C16       -10.5733   -6.8427    0.1778 C.3       1 <0>        -0.1864
     23 C17        -4.9694   -9.4422    0.5929 C.cat     1 <0>         0.6548
     24 N2         -5.5247  -10.6575    0.6690 N.pl3     1 <0>        -0.7705
     25 N3         -3.6382   -9.3109    0.6351 N.pl3     1 <0>        -0.7613
     26 H1          1.0053    1.8021    0.0021 H         1 <0>         0.1051
     27 H2         -0.5445    1.7859   -0.8732 H         1 <0>         0.0581
     28 H3         -0.5275    1.7763    0.9067 H         1 <0>         0.0581
     29 H4         -2.3294    1.1814    0.0207 H         1 <0>         0.1433
     30 H5         -4.5083    0.0417    0.0354 H         1 <0>         0.1315
     31 H6         -2.5201   -3.7539    0.0159 H         1 <0>         0.1423
     32 H7         -0.7684   -4.4969    0.8755 H         1 <0>         0.0524
     33 H8         -0.7847   -4.4873   -0.9044 H         1 <0>         0.0530
     34 H9          0.7586   -4.6312   -0.0292 H         1 <0>         0.1018
     35 H10        -6.2680   -0.8281   -0.1518 H         1 <0>         0.2072
     36 H11        -4.4053   -6.6271    0.3877 H         1 <0>         0.1687
     37 H12       -11.5500   -6.3644    0.1052 H         1 <0>         0.1377
     38 H13       -10.4439   -7.5330   -0.6559 H         1 <0>         0.1018
     39 H14       -10.5063   -7.3912    1.1173 H         1 <0>         0.1019
     40 H15        -4.9623  -11.4432    0.7549 H         1 <0>         0.4368
     41 H16        -3.2357   -8.4300    0.5798 H         1 <0>         0.4451
     42 H17        -3.0758  -10.0965    0.7209 H         1 <0>         0.4360
     43 H18        -6.4895  -10.7527    0.6385 H         1 <0>         0.4410
@<TRIPOS>BOND
     1    1    2 1
     2    1   26 1
     3    1   27 1
     4    1   28 1
     5    2    3 1
     6    3    8 ar
     7    3    4 ar
     8    4    5 ar
     9    4   29 1
    10    5    6 ar
    11    5   30 1
    12    6    7 ar
    13    6   11 1
    14    7    8 ar
    15    7   31 1
    16    8    9 1
    17    9   10 1
    18   10   32 1
    19   10   33 1
    20   10   34 1
    21   11   15 1
    22   11   12 2
    23   12   13 1
    24   12   35 1
    25   13   14 1
    26   14   15 2
    27   14   16 1
    28   16   20 2
    29   16   17 1
    30   17   18 2
    31   17   36 1
    32   18   19 1
    33   18   23 1
    34   19   20 1
    35   20   21 1
    36   21   22 1
    37   22   37 1
    38   22   38 1
    39   22   39 1
    40   23   24 2
    41   23   25 1
    42   24   40 1
    43   24   43 1
    44   25   41 1
    45   25   42 1
@<TRIPOS>MOLECULE
CHEMBL62836
   45    47     0     0     0
SMALL
USER_CHARGES

@<TRIPOS>ATOM
      1 C1          1.9098    1.6260    0.4810 C.3       1 <0>        -0.1498
      2 C2          1.9562    0.0968    0.4714 C.3       1 <0>        -0.0934
      3 C3          2.8642   -0.3788   -0.6645 C.3       1 <0>        -0.1488
      4 C4          2.5061   -0.4051    1.8080 C.3       1 <0>         0.0583
      5 O1          1.5978   -0.0610    2.8562 O.3       1 <0>        -0.2960
      6 C5          1.9396   -0.4372    4.1177 C.ar      1 <0>         0.1098
      7 C6          3.1261   -1.1171    4.3404 C.ar      1 <0>        -0.1659
      8 C7          3.4800   -1.5034    5.6218 C.ar      1 <0>        -0.0835
      9 C8          2.6554   -1.2148    6.6885 C.ar      1 <0>        -0.1174
     10 C9          1.4564   -0.5300    6.4791 C.ar      1 <0>        -0.0569
     11 C10         1.1012   -0.1344    5.1847 C.ar      1 <0>         0.1410
     12 O2         -0.0602    0.5371    4.9709 O.3       1 <0>        -0.4594
     13 C11         0.5701   -0.2200    7.6193 C.2       1 <0>         0.3918
     14 N1         -0.5771    0.4113    7.5336 N.2       1 <0>        -0.4605
     15 C12        -1.1278    0.5273    8.7585 C.ar      1 <0>         0.1384
     16 C13        -2.3187    1.1010    9.2223 C.ar      1 <0>        -0.0902
     17 C14        -2.6207    1.0679   10.5525 C.ar      1 <0>         0.1392
     18 C15        -1.7453    0.4609   11.4660 C.ar      1 <0>        -0.1973
     19 C16        -0.5564   -0.1146   11.0187 C.ar      1 <0>         0.0009
     20 C17        -0.2460   -0.0830    9.6714 C.ar      1 <0>         0.0242
     21 N2          0.8190   -0.5529    8.9225 N.pl3     1 <0>        -0.5854
     22 C18        -2.0831    0.4320   12.9024 C.cat     1 <0>         0.6150
     23 N3         -2.1346   -0.7312   13.5518 N.pl3     1 <0>        -0.7535
     24 N4         -2.3366    1.5690   13.5505 N.pl3     1 <0>        -0.7463
     25 F1         -3.7704    1.6237   10.9933 F         1 <0>        -0.1215
     26 H1          2.9153    2.0191    0.6308 H         1 <0>         0.0547
     27 H2          1.5180    1.9836   -0.4713 H         1 <0>         0.0602
     28 H3          1.2629    1.9648    1.2902 H         1 <0>         0.0633
     29 H4          0.9507   -0.2963    0.3216 H         1 <0>         0.0831
     30 H5          3.8697    0.0143   -0.5147 H         1 <0>         0.0593
     31 H6          2.8973   -1.4683   -0.6713 H         1 <0>         0.0588
     32 H7          2.4724   -0.0213   -1.6168 H         1 <0>         0.0686
     33 H8          2.6227   -1.4882    1.7693 H         1 <0>         0.0662
     34 H9          3.4741    0.0579    1.9996 H         1 <0>         0.0669
     35 H10         3.7777   -1.3472    3.5105 H         1 <0>         0.1428
     36 H11         4.4063   -2.0337    5.7866 H         1 <0>         0.1415
     37 H12         2.9366   -1.5186    7.6860 H         1 <0>         0.1280
     38 H13        -0.8190   -0.0357    4.7947 H         1 <0>         0.3941
     39 H14        -2.9983    1.5702    8.5264 H         1 <0>         0.1668
     40 H15         0.1183   -0.5821   11.7205 H         1 <0>         0.1525
     41 H16        -2.0240   -1.5633   13.0657 H         1 <0>         0.4484
     42 H17        -2.2991    2.4153   13.0781 H         1 <0>         0.4495
     43 H18        -2.5587    1.5500   14.4946 H         1 <0>         0.4341
     44 H19        -2.2827   -0.7454   14.5103 H         1 <0>         0.4335
     45 H20         1.5959   -1.0266    9.2584 H         1 <0>         0.4348
@<TRIPOS>BOND
     1    1    2 1
     2    1   26 1
     3    1   27 1
     4    1   28 1
     5    2    3 1
     6    2    4 1
     7    2   29 1
     8    3   30 1
     9    3   31 1
    10    3   32 1
    11    4    5 1
    12    4   33 1
    13    4   34 1
    14    5    6 1
    15    6   11 ar
    16    6    7 ar
    17    7    8 ar
    18    7   35 1
    19    8    9 ar
    20    8   36 1
    21    9   10 ar
    22    9   37 1
    23   10   11 ar
    24   10   13 1
    25   11   12 1
    26   12   38 1
    27   13   21 1
    28   13   14 2
    29   14   15 1
    30   15   20 ar
    31   15   16 ar
    32   16   17 ar
    33   16   39 1
    34   17   18 ar
    35   17   25 1
    36   18   19 ar
    37   18   22 1
    38   19   20 ar
    39   19   40 1
    40   20   21 1
    41   21   45 1
    42   22   23 2
    43   22   24 1
    44   23   41 1
    45   23   44 1
    46   24   42 1
    47   24   43 1
@<TRIPOS>MOLECULE
CHEMBL62836__1
   45    47     0     0     0
SMALL
USER_CHARGES

@<TRIPOS>ATOM
      1 C1         -0.4749    2.1947    0.3713 C.3       1 <0>        -0.1496
      2 C2         -0.3114    0.6735    0.3608 C.3       1 <0>        -0.0932
      3 C3          0.4133    0.2297    1.6331 C.3       1 <0>        -0.1490
      4 C4         -1.6901    0.0127    0.3024 C.3       1 <0>         0.0583
      5 O1         -2.3200    0.3338   -0.9395 O.3       1 <0>        -0.2969
      6 C5         -3.5615   -0.1788   -1.1528 C.ar      1 <0>         0.1105
      7 C6         -4.1610   -0.9683   -0.1846 C.ar      1 <0>        -0.1687
      8 C7         -5.4245   -1.4928   -0.3950 C.ar      1 <0>        -0.0816
      9 C8         -6.0985   -1.2346   -1.5700 C.ar      1 <0>        -0.1197
     10 C9         -5.5067   -0.4407   -2.5545 C.ar      1 <0>        -0.0498
     11 C10        -4.2317    0.0939   -2.3399 C.ar      1 <0>         0.1354
     12 O2         -3.6493    0.8718   -3.2893 O.3       1 <0>        -0.4603
     13 C11        -6.2257   -0.1623   -3.8149 C.2       1 <0>         0.3698
     14 N1         -7.4776   -0.6239   -4.1262 N.pl3     1 <0>        -0.5843
     15 H1         -8.0401   -1.1824   -3.5671 H         1 <0>         0.4365
     16 C12        -7.7899   -0.1461   -5.3819 C.ar      1 <0>         0.1175
     17 C13        -8.8984   -0.2778   -6.2093 C.ar      1 <0>        -0.1262
     18 C14        -8.9144    0.3344   -7.4432 C.ar      1 <0>         0.1526
     19 C15        -7.8139    1.0925   -7.8708 C.ar      1 <0>        -0.2051
     20 C16        -6.6989    1.2305   -7.0508 C.ar      1 <0>         0.0377
     21 C17        -6.6802    0.6126   -5.8005 C.ar      1 <0>         0.0420
     22 N2         -5.7640    0.5676   -4.8003 N.2       1 <0>        -0.4449
     23 C18        -7.8392    1.7452   -9.1955 C.cat     1 <0>         0.6147
     24 N3         -8.8279    2.5826   -9.5069 N.pl3     1 <0>        -0.7480
     25 N4         -6.8733    1.4966  -10.0793 N.pl3     1 <0>        -0.7501
     26 F1         -9.9939    0.2041   -8.2450 F         1 <0>        -0.1188
     27 H2          0.5073    2.6654    0.4129 H         1 <0>         0.0599
     28 H3         -0.9913    2.5109   -0.5351 H         1 <0>         0.0628
     29 H4         -1.0574    2.4915    1.2435 H         1 <0>         0.0548
     30 H5          0.2710    0.3767   -0.5114 H         1 <0>         0.0826
     31 H6         -0.1691    0.5266    2.5054 H         1 <0>         0.0595
     32 H7          0.5298   -0.8540    1.6257 H         1 <0>         0.0590
     33 H8          1.3955    0.7005    1.6748 H         1 <0>         0.0685
     34 H9         -1.5787   -1.0684    0.3845 H         1 <0>         0.0662
     35 H10        -2.3034    0.3783    1.1260 H         1 <0>         0.0669
     36 H11        -3.6398   -1.1757    0.7383 H         1 <0>         0.1423
     37 H12        -5.8846   -2.1075    0.3645 H         1 <0>         0.1414
     38 H13        -7.0840   -1.6467   -1.7290 H         1 <0>         0.1284
     39 H14        -3.1212    0.3788   -3.9321 H         1 <0>         0.3916
     40 H15        -9.7477   -0.8608   -5.8850 H         1 <0>         0.1595
     41 H16        -5.8518    1.8138   -7.3804 H         1 <0>         0.1616
     42 H17        -9.4892    2.8219   -8.8389 H         1 <0>         0.4489
     43 H18        -6.1536    0.8871   -9.8526 H         1 <0>         0.4491
     44 H19        -6.8899    1.9253  -10.9493 H         1 <0>         0.4340
     45 H20        -8.8862    2.9528  -10.4016 H         1 <0>         0.4342
@<TRIPOS>BOND
     1    1    2 1
     2    1   27 1
     3    1   28 1
     4    1   29 1
     5    2    3 1
     6    2    4 1
     7    2   30 1
     8    3   31 1
     9    3   32 1
    10    3   33 1
    11    4    5 1
    12    4   34 1
    13    4   35 1
    14    5    6 1
    15    6   11 ar
    16    6    7 ar
    17    7    8 ar
    18    7   36 1
    19    8    9 ar
    20    8   37 1
    21    9   10 ar
    22    9   38 1
    23   10   11 ar
    24   10   13 1
    25   11   12 1
    26   12   39 1
    27   13   22 2
    28   13   14 1
    29   14   15 1
    30   14   16 1
    31   16   21 ar
    32   16   17 ar
    33   17   18 ar
    34   17   40 1
    35   18   19 ar
    36   18   26 1
    37   19   20 ar
    38   19   23 1
    39   20   21 ar
    40   20   41 1
    41   21   22 1
    42   23   24 2
    43   23   25 1
    44   24   42 1
    45   24   45 1
    46   25   43 1
    47   25   44 1
@<TRIPOS>MOLECULE
CHEMBL53448
   38    39     0     0     0
SMALL
USER_CHARGES

@<TRIPOS>ATOM
      1 C1         -0.0856    1.3670    0.0522 C.ar      1 <0>        -0.0525
      2 C2          1.1115    2.0662    0.0064 C.ar      1 <0>        -0.1149
      3 C3          2.3066    1.3714   -0.0462 C.ar      1 <0>         0.1321
      4 N1          2.3315    0.0528   -0.0537 N.ar      1 <0>        -0.4947
      5 C4          1.2156   -0.6669   -0.0113 C.ar      1 <0>         0.3687
      6 C5         -0.0410   -0.0281    0.0436 C.ar      1 <0>        -0.1177
      7 C6         -1.2851   -0.8200    0.0913 C.2       1 <0>        -0.1026
      8 C7         -2.4610   -0.2063    0.1432 C.2       1 <0>        -0.1371
      9 C8         -3.7316   -1.0151    0.1920 C.3       1 <0>        -0.0551
     10 C9         -4.6001   -0.6742   -1.0206 C.3       1 <0>        -0.1099
     11 C10        -5.8901   -1.4954   -0.9711 C.3       1 <0>        -0.1200
     12 C11        -6.6549   -1.1666    0.3126 C.3       1 <0>        -0.1214
     13 C12        -5.7864   -1.5076    1.5252 C.3       1 <0>        -0.1202
     14 C13        -4.4964   -0.6864    1.4757 C.3       1 <0>        -0.1113
     15 N2          1.2851   -2.0274   -0.0208 N.2       1 <0>        -0.6287
     16 C14         1.2036   -2.6824   -1.1591 C.2       1 <0>         0.6786
     17 N3          1.1698   -1.9951   -2.3441 N.pl3     1 <0>        -0.8769
     18 N4          1.1524   -4.0517   -1.1595 N.pl3     1 <0>        -0.8357
     19 Cl1         1.1101    3.8022    0.0144 Cl        1 <0>        -0.0596
     20 H1         -1.0296    1.8897    0.0980 H         1 <0>         0.1429
     21 H2          3.2367    1.9191   -0.0821 H         1 <0>         0.1625
     22 H3         -1.2390   -1.8990    0.0842 H         1 <0>         0.1215
     23 H4         -2.5071    0.8727    0.1504 H         1 <0>         0.1110
     24 H5         -3.4870   -2.0772    0.1766 H         1 <0>         0.0735
     25 H6         -4.8446    0.3879   -1.0053 H         1 <0>         0.0635
     26 H7         -4.0552   -0.9084   -1.9351 H         1 <0>         0.0611
     27 H8         -6.5088   -1.2525   -1.8349 H         1 <0>         0.0623
     28 H9         -5.6455   -2.5575   -0.9864 H         1 <0>         0.0611
     29 H10        -6.8995   -0.1045    0.3280 H         1 <0>         0.0617
     30 H11        -7.5739   -1.7516    0.3480 H         1 <0>         0.0611
     31 H12        -6.3313   -1.2733    2.4398 H         1 <0>         0.0628
     32 H13        -5.5419   -2.5696    1.5099 H         1 <0>         0.0615
     33 H14        -3.8777   -0.9293    2.3396 H         1 <0>         0.0634
     34 H15        -4.7410    0.3757    1.4910 H         1 <0>         0.0635
     35 H16         1.2840   -1.0319   -2.3496 H         1 <0>         0.4127
     36 H17         1.1764   -4.5382   -0.3207 H         1 <0>         0.4237
     37 H18         1.0923   -4.5345   -1.9987 H         1 <0>         0.4099
     38 H19         1.0316   -2.4719   -3.1775 H         1 <0>         0.3992
@<TRIPOS>BOND
     1    1    6 ar
     2    1    2 ar
     3    1   20 1
     4    2    3 ar
     5    2   19 1
     6    3    4 ar
     7    3   21 1
     8    4    5 ar
     9    5    6 ar
    10    5   15 1
    11    6    7 1
    12    7    8 2
    13    7   22 1
    14    8    9 1
    15    8   23 1
    16    9   14 1
    17    9   10 1
    18    9   24 1
    19   10   11 1
    20   10   25 1
    21   10   26 1
    22   11   12 1
    23   11   27 1
    24   11   28 1
    25   12   13 1
    26   12   29 1
    27   12   30 1
    28   13   14 1
    29   13   31 1
    30   13   32 1
    31   14   33 1
    32   14   34 1
    33   15   16 2
    34   16   17 1
    35   16   18 1
    36   17   35 1
    37   17   38 1
    38   18   36 1
    39   18   37 1
@<TRIPOS>MOLECULE
CHEMBL53448__1
   38    39     0     0     0
SMALL
USER_CHARGES

@<TRIPOS>ATOM
      1 C1         -0.0169    1.3928    0.0097 C.ar      1 <0>        -0.0383
      2 C2          1.1941    2.0679    0.0018 C.ar      1 <0>        -0.1254
      3 C3          2.3741    1.3469   -0.0134 C.ar      1 <0>         0.1485
      4 N1          2.3678    0.0271   -0.0204 N.ar      1 <0>        -0.4349
      5 C4          1.2405   -0.6641   -0.0134 C.ar      1 <0>         0.3990
      6 C5          0.0021   -0.0041    0.0020 C.ar      1 <0>        -0.1338
      7 C6         -1.2591   -0.7728    0.0104 C.2       1 <0>        -0.1211
      8 C7         -2.4231   -0.1371    0.0254 C.2       1 <0>        -0.1231
      9 C8         -3.7099   -0.9214    0.0340 C.3       1 <0>        -0.0582
     10 C9         -4.5331   -0.5643   -1.2053 C.3       1 <0>        -0.1115
     11 C10        -5.8395   -1.3606   -1.1966 C.3       1 <0>        -0.1203
     12 C11        -6.6379   -1.0168    0.0625 C.3       1 <0>        -0.1220
     13 C12        -5.8147   -1.3740    1.3017 C.3       1 <0>        -0.1203
     14 C13        -4.5083   -0.5777    1.2930 C.3       1 <0>        -0.1115
     15 N2          1.2825   -2.0545   -0.0212 N.pl3     1 <0>        -0.6376
     16 C14         2.4956   -2.7068   -0.0363 C.2       1 <0>         0.6059
     17 N3          3.6039   -2.0215   -0.0432 N.2       1 <0>        -0.7404
     18 N4          2.5370   -4.0811   -0.0441 N.pl3     1 <0>        -0.8982
     19 Cl1         1.2289    3.8035    0.0102 Cl        1 <0>        -0.0594
     20 H1         -0.9517    1.9335    0.0260 H         1 <0>         0.1465
     21 H2          3.3173    1.8729   -0.0199 H         1 <0>         0.1665
     22 H3         -1.2334   -1.8524    0.0044 H         1 <0>         0.1153
     23 H4         -2.4488    0.9426    0.0314 H         1 <0>         0.1159
     24 H5         -3.4854   -1.9880    0.0260 H         1 <0>         0.0746
     25 H6         -4.7577    0.5023   -1.1973 H         1 <0>         0.0648
     26 H7         -3.9643   -0.8091   -2.1023 H         1 <0>         0.0634
     27 H8         -6.4260   -1.1061   -2.0794 H         1 <0>         0.0631
     28 H9         -5.6150   -2.4272   -1.2045 H         1 <0>         0.0614
     29 H10        -6.8625    0.0497    0.0705 H         1 <0>         0.0621
     30 H11        -7.5687   -1.5841    0.0687 H         1 <0>         0.0613
     31 H12        -6.3835   -1.1291    2.1987 H         1 <0>         0.0630
     32 H13        -5.5902   -2.4406    1.2938 H         1 <0>         0.0614
     33 H14        -3.9218   -0.8321    2.1759 H         1 <0>         0.0634
     34 H15        -4.7329    0.4889    1.3010 H         1 <0>         0.0648
     35 H16         0.4575   -2.5646   -0.0161 H         1 <0>         0.4206
     36 H17         4.4581   -2.4809   -0.0538 H         1 <0>         0.3349
     37 H18         1.7121   -4.5913   -0.0389 H         1 <0>         0.3886
     38 H19         3.3913   -4.5405   -0.0547 H         1 <0>         0.4111
@<TRIPOS>BOND
     1    1    6 ar
     2    1    2 ar
     3    1   20 1
     4    2    3 ar
     5    2   19 1
     6    3    4 ar
     7    3   21 1
     8    4    5 ar
     9    5    6 ar
    10    5   15 1
    11    6    7 1
    12    7    8 2
    13    7   22 1
    14    8    9 1
    15    8   23 1
    16    9   14 1
    17    9   10 1
    18    9   24 1
    19   10   11 1
    20   10   25 1
    21   10   26 1
    22   11   12 1
    23   11   27 1
    24   11   28 1
    25   12   13 1
    26   12   29 1
    27   12   30 1
    28   13   14 1
    29   13   31 1
    30   13   32 1
    31   14   33 1
    32   14   34 1
    33   15   16 1
    34   15   35 1
    35   16   17 2
    36   16   18 1
    37   17   36 1
    38   18   37 1
    39   18   38 1
@<TRIPOS>MOLECULE
CHEMBL53448__2
   38    39     0     0     0
SMALL
USER_CHARGES

@<TRIPOS>ATOM
      1 C1          0.1944    1.0589   -2.0528 C.ar      1 <0>        -0.0294
      2 C2          1.4369    1.6324   -2.2754 C.ar      1 <0>        -0.1251
      3 C3          2.5794    0.9361   -1.9257 C.ar      1 <0>         0.1550
      4 N1          2.5077   -0.2651   -1.3836 N.ar      1 <0>        -0.5047
      5 C4          1.3480   -0.8562   -1.1506 C.ar      1 <0>         0.3903
      6 C5          0.1442   -0.2134   -1.4779 C.ar      1 <0>        -0.1285
      7 C6         -1.1530   -0.8702   -1.2187 C.2       1 <0>        -0.1266
      8 C7         -2.2839   -0.2519   -1.5323 C.2       1 <0>        -0.1160
      9 C8         -3.6075   -0.9221   -1.2678 C.3       1 <0>        -0.0599
     10 C9         -4.3661   -1.0909   -2.5857 C.3       1 <0>        -0.1112
     11 C10        -5.7099   -1.7713   -2.3172 C.3       1 <0>        -0.1206
     12 C11        -6.5357   -0.9094   -1.3602 C.3       1 <0>        -0.1220
     13 C12        -5.7771   -0.7407   -0.0422 C.3       1 <0>        -0.1206
     14 C13        -4.4333   -0.0602   -0.3107 C.3       1 <0>        -0.1112
     15 N2          1.3212   -2.1233   -0.5774 N.pl3     1 <0>        -0.6788
     16 C14         2.4900   -2.7064   -0.1402 C.2       1 <0>         0.6380
     17 N3          2.4853   -3.9397    0.2804 N.2       1 <0>        -0.7922
     18 N4          3.6618   -1.9871   -0.1477 N.pl3     1 <0>        -0.8331
     19 Cl1         1.5574    3.2110   -2.9876 Cl        1 <0>        -0.0513
     20 H1         -0.7124    1.5846   -2.3133 H         1 <0>         0.1492
     21 H2          3.5472    1.3829   -2.0995 H         1 <0>         0.1722
     22 H3         -1.1809   -1.8540   -0.7739 H         1 <0>         0.1176
     23 H4         -2.2561    0.7318   -1.9771 H         1 <0>         0.1160
     24 H5         -3.4360   -1.9007   -0.8194 H         1 <0>         0.0759
     25 H6         -4.5375   -0.1123   -3.0341 H         1 <0>         0.0648
     26 H7         -3.7777   -1.7049   -3.2676 H         1 <0>         0.0634
     27 H8         -6.2503   -1.8915   -3.2561 H         1 <0>         0.0636
     28 H9         -5.5384   -2.7499   -1.8688 H         1 <0>         0.0620
     29 H10        -6.7071    0.0692   -1.8086 H         1 <0>         0.0622
     30 H11        -7.4931   -1.3942   -1.1689 H         1 <0>         0.0620
     31 H12        -6.3655   -0.1266    0.6396 H         1 <0>         0.0636
     32 H13        -5.6057   -1.7193    0.4062 H         1 <0>         0.0620
     33 H14        -3.8929    0.0600    0.6282 H         1 <0>         0.0634
     34 H15        -4.6048    0.9184   -0.7591 H         1 <0>         0.0649
     35 H16         0.4793   -2.5963   -0.4854 H         1 <0>         0.4214
     36 H17         3.6438   -1.0291    0.0033 H         1 <0>         0.4132
     37 H18         4.5065   -2.4377   -0.3041 H         1 <0>         0.4100
     38 H19         1.6586   -4.4471    0.2858 H         1 <0>         0.3401
@<TRIPOS>BOND
     1    1    6 ar
     2    1    2 ar
     3    1   20 1
     4    2    3 ar
     5    2   19 1
     6    3    4 ar
     7    3   21 1
     8    4    5 ar
     9    5    6 ar
    10    5   15 1
    11    6    7 1
    12    7    8 2
    13    7   22 1
    14    8    9 1
    15    8   23 1
    16    9   14 1
    17    9   10 1
    18    9   24 1
    19   10   11 1
    20   10   25 1
    21   10   26 1
    22   11   12 1
    23   11   27 1
    24   11   28 1
    25   12   13 1
    26   12   29 1
    27   12   30 1
    28   13   14 1
    29   13   31 1
    30   13   32 1
    31   14   33 1
    32   14   34 1
    33   15   16 1
    34   15   35 1
    35   16   17 2
    36   16   18 1
    37   17   38 1
    38   18   36 1
    39   18   37 1
@<TRIPOS>MOLECULE
CHEMBL53448__3
   39    40     0     0     0
SMALL
USER_CHARGES

@<TRIPOS>ATOM
      1 C1          0.1051    1.2384    1.2195 C.ar      1 <0>        -0.0315
      2 C2          1.3349    1.8295    1.4650 C.ar      1 <0>        -0.0842
      3 C3          2.4920    1.0984    1.2669 C.ar      1 <0>         0.1522
      4 N1          2.4460   -0.1521    0.8478 N.ar      1 <0>        -0.5154
      5 C4          1.2994   -0.7618    0.5993 C.ar      1 <0>         0.3399
      6 C5          0.0823   -0.0866    0.7770 C.ar      1 <0>        -0.0679
      7 C6         -1.2005   -0.7647    0.5009 C.2       1 <0>        -0.1668
      8 C7         -2.3443   -0.1154    0.6727 C.2       1 <0>        -0.0697
      9 C8         -3.6531   -0.8073    0.3910 C.3       1 <0>        -0.0666
     10 C9         -4.4064   -0.0478   -0.7029 C.3       1 <0>        -0.1122
     11 C10        -5.7352   -0.7502   -0.9889 C.3       1 <0>        -0.1208
     12 C11        -6.5808   -0.7803    0.2858 C.3       1 <0>        -0.1247
     13 C12        -5.8276   -1.5398    1.3798 C.3       1 <0>        -0.1208
     14 C13        -4.4988   -0.8374    1.6657 C.3       1 <0>        -0.1122
     15 N2          1.2998   -2.0819    0.1583 N.pl3     1 <0>        -0.6236
     16 C14         2.4839   -2.7040   -0.1419 C.cat     1 <0>         0.7452
     17 N3          2.4992   -4.0049   -0.4264 N.pl3     1 <0>        -0.7912
     18 N4          3.6189   -2.0074   -0.1492 N.pl3     1 <0>        -0.7649
     19 Cl1         1.4216    3.4735    2.0159 Cl        1 <0>        -0.0128
     20 H1         -0.8127    1.7871    1.3710 H         1 <0>         0.1660
     21 H2          3.4500    1.5590    1.4582 H         1 <0>         0.1896
     22 H3         -1.2072   -1.7891    0.1591 H         1 <0>         0.1230
     23 H4         -2.3376    0.9091    1.0145 H         1 <0>         0.1225
     24 H5         -3.4607   -1.8273    0.0585 H         1 <0>         0.0795
     25 H6         -4.5988    0.9723   -0.3704 H         1 <0>         0.0682
     26 H7         -3.8039   -0.0263   -1.6110 H         1 <0>         0.0641
     27 H8         -6.2718   -0.2091   -1.7682 H         1 <0>         0.0675
     28 H9         -5.5428   -1.7702   -1.3214 H         1 <0>         0.0625
     29 H10        -6.7732    0.2398    0.6184 H         1 <0>         0.0643
     30 H11        -7.5275   -1.2807    0.0821 H         1 <0>         0.0658
     31 H12        -6.4300   -1.5612    2.2879 H         1 <0>         0.0676
     32 H13        -5.6351   -2.5598    1.0472 H         1 <0>         0.0626
     33 H14        -3.9621   -1.3784    2.4451 H         1 <0>         0.0642
     34 H15        -4.6912    0.1827    1.9983 H         1 <0>         0.0682
     35 H16         0.4621   -2.5617    0.0634 H         1 <0>         0.4502
     36 H17         1.6725   -4.5123   -0.4211 H         1 <0>         0.4400
     37 H18         3.6010   -1.0495    0.0025 H         1 <0>         0.4470
     38 H19         4.4635   -2.4579   -0.3062 H         1 <0>         0.4308
     39 H20         3.3371   -4.4451   -0.6388 H         1 <0>         0.4444
@<TRIPOS>BOND
     1    1    6 ar
     2    1    2 ar
     3    1   20 1
     4    2    3 ar
     5    2   19 1
     6    3    4 ar
     7    3   21 1
     8    4    5 ar
     9    5    6 ar
    10    5   15 1
    11    6    7 1
    12    7    8 2
    13    7   22 1
    14    8    9 1
    15    8   23 1
    16    9   14 1
    17    9   10 1
    18    9   24 1
    19   10   11 1
    20   10   25 1
    21   10   26 1
    22   11   12 1
    23   11   27 1
    24   11   28 1
    25   12   13 1
    26   12   29 1
    27   12   30 1
    28   13   14 1
    29   13   31 1
    30   13   32 1
    31   14   33 1
    32   14   34 1
    33   15   16 1
    34   15   35 1
    35   16   17 2
    36   16   18 1
    37   17   36 1
    38   17   39 1
    39   18   37 1
    40   18   38 1
@<TRIPOS>MOLECULE
CHEMBL554141
   42    44     0     0     0
SMALL
USER_CHARGES

@<TRIPOS>ATOM
      1 C1         -0.4750    0.6118    0.2310 C.ar      1 <0>        -0.1020
      2 C2          0.6796    1.1010   -0.3508 C.ar      1 <0>        -0.1212
      3 C3          1.8353    0.3426   -0.3372 C.ar      1 <0>        -0.0920
      4 C4          1.8365   -0.9047    0.2588 C.ar      1 <0>        -0.1081
      5 C5          0.6821   -1.3934    0.8414 C.ar      1 <0>        -0.0938
      6 C6         -0.4739   -0.6357    0.8265 C.ar      1 <0>        -0.1228
      7 C7          3.0961   -1.7319    0.2728 C.3       1 <0>         0.1283
      8 O1          3.8493   -1.4327    1.4498 O.3       1 <0>        -0.3518
      9 C8          5.0116   -2.0920    1.6157 C.2       1 <0>         0.6496
     10 O2          5.3763   -2.8992    0.7840 O.2       1 <0>        -0.5374
     11 N1          5.7703   -1.8566    2.7044 N.am      1 <0>        -0.6518
     12 C9          6.9258   -2.6062    2.9245 C.ar      1 <0>         0.1782
     13 C10         7.6963   -3.0255    1.8607 C.ar      1 <0>        -0.1077
     14 C11         8.8501   -3.7733    2.0702 C.ar      1 <0>        -0.0536
     15 C12         9.2510   -4.1119    3.3276 C.ar      1 <0>        -0.1262
     16 C13         8.4958   -3.7055    4.4391 C.ar      1 <0>         0.0040
     17 C14         7.3205   -2.9376    4.2395 C.ar      1 <0>        -0.0760
     18 C15         6.5676   -2.5259    5.3465 C.ar      1 <0>        -0.0148
     19 C16         6.9858   -2.8705    6.6214 C.ar      1 <0>        -0.1532
     20 C17         8.1563   -3.6271    6.8083 C.ar      1 <0>        -0.0936
     21 C18         8.8918   -4.0443    5.7467 C.ar      1 <0>        -0.0739
     22 C19         6.1959   -2.4392    7.7942 C.cat     1 <0>         0.6001
     23 N2          6.5935   -2.7678    9.0224 N.pl3     1 <0>        -0.7601
     24 N3          5.0865   -1.7220    7.6228 N.pl3     1 <0>        -0.7660
     25 H1         -1.3767    1.2062    0.2243 H         1 <0>         0.1282
     26 H2          0.6786    2.0754   -0.8164 H         1 <0>         0.1291
     27 H3          2.7371    0.7244   -0.7924 H         1 <0>         0.1259
     28 H4          0.6830   -2.3681    1.3067 H         1 <0>         0.1241
     29 H5         -1.3759   -1.0177    1.2814 H         1 <0>         0.1281
     30 H6          2.8358   -2.7903    0.2672 H         1 <0>         0.0837
     31 H7          3.6930   -1.4998   -0.6093 H         1 <0>         0.0847
     32 H8          5.5129   -1.1658    3.3349 H         1 <0>         0.4164
     33 H9          7.4003   -2.7707    0.8537 H         1 <0>         0.1564
     34 H10         9.4380   -4.0913    1.2218 H         1 <0>         0.1452
     35 H11        10.1499   -4.6935    3.4693 H         1 <0>         0.1458
     36 H12         5.6684   -1.9441    5.2073 H         1 <0>         0.1340
     37 H13         8.4692   -3.8869    7.8088 H         1 <0>         0.1367
     38 H14         9.7881   -4.6254    5.9058 H         1 <0>         0.1533
     39 H15         7.4014   -3.2901    9.1472 H         1 <0>         0.4451
     40 H16         4.7969   -1.4827    6.7285 H         1 <0>         0.4417
     41 H17         4.5682   -1.4390    8.3924 H         1 <0>         0.4341
     42 H18         6.0753   -2.4849    9.7920 H         1 <0>         0.4333
@<TRIPOS>BOND
     1    1    6 ar
     2    1    2 ar
     3    1   25 1
     4    2    3 ar
     5    2   26 1
     6    3    4 ar
     7    3   27 1
     8    4    5 ar
     9    4    7 1
    10    5    6 ar
    11    5   28 1
    12    6   29 1
    13    7    8 1
    14    7   30 1
    15    7   31 1
    16    8    9 1
    17    9   10 2
    18    9   11 am
    19   11   12 1
    20   11   32 1
    21   12   17 ar
    22   12   13 ar
    23   13   14 ar
    24   13   33 1
    25   14   15 ar
    26   14   34 1
    27   15   16 ar
    28   15   35 1
    29   16   21 ar
    30   16   17 ar
    31   17   18 ar
    32   18   19 ar
    33   18   36 1
    34   19   20 ar
    35   19   22 1
    36   20   21 ar
    37   20   37 1
    38   21   38 1
    39   22   23 2
    40   22   24 1
    41   23   39 1
    42   23   42 1
    43   24   40 1
    44   24   41 1
@<TRIPOS>MOLECULE
CHEMBL226714
   61    64     0     0     0
SMALL
USER_CHARGES

@<TRIPOS>ATOM
      1 C1          4.0535    0.4745   -2.8406 C.3       1 <0>         0.0247
      2 N1          3.1735   -0.2208   -1.8919 N.3       1 <0>        -0.5426
      3 C2          2.2729   -1.1472   -2.5910 C.3       1 <0>         0.0401
      4 C3          1.2553   -1.7140   -1.5953 C.3       1 <0>         0.1183
      5 N2          1.9869   -2.2959   -0.4598 N.am      1 <0>        -0.5848
      6 C4          3.0068   -1.4720    0.2066 C.3       1 <0>         0.0905
      7 C5          3.9555   -0.9147   -0.8600 C.3       1 <0>         0.0391
      8 C6          1.7292   -3.5507   -0.0407 C.2       1 <0>         0.5159
      9 O1          0.8342   -4.1893   -0.5529 O.2       1 <0>        -0.5255
     10 C7          2.5530   -4.1603    1.0641 C.3       1 <0>         0.1601
     11 C8          1.9019   -5.4682    1.5470 C.3       1 <0>        -0.1501
     12 C9          2.9289   -6.5913    1.2942 C.3       1 <0>        -0.1184
     13 C10         4.2931   -5.8584    1.2626 C.3       1 <0>        -0.1236
     14 C11         3.9529   -4.5342    0.5348 C.3       1 <0>        -0.1131
     15 N3          2.6733   -3.2172    2.1787 N.pl3     1 <0>        -1.1057
     16 S1          1.3134   -2.5599    2.8577 S.o2      1 <0>         2.6815
     17 O2          1.7511   -1.7477    3.9385 O.2       1 <0>        -0.9526
     18 O3          0.5321   -2.0473    1.7872 O.2       1 <0>        -0.9311
     19 C12         0.3916   -3.8848    3.5645 C.ar      1 <0>        -0.6893
     20 C13        -0.5561   -4.5498    2.7912 C.ar      1 <0>        -0.0063
     21 C14        -1.2868   -5.5787    3.3071 C.ar      1 <0>        -0.1297
     22 C15        -1.0795   -5.9724    4.6360 C.ar      1 <0>         0.0436
     23 C16        -0.1140   -5.2946    5.4216 C.ar      1 <0>        -0.1454
     24 C17         0.6213   -4.2472    4.8597 C.ar      1 <0>         0.0546
     25 C18         0.0786   -5.7297    6.8040 C.ar      1 <0>         0.4302
     26 N4         -0.6526   -6.7357    7.2681 N.ar      1 <0>        -0.5221
     27 C19        -1.5524   -7.3624    6.5253 C.ar      1 <0>         0.1458
     28 C20        -1.8004   -7.0277    5.2301 C.ar      1 <0>        -0.1301
     29 Cl1        -2.9959   -7.8935    4.3164 Cl        1 <0>        -0.0491
     30 N5          0.9920   -5.1142    7.6010 N.2       1 <0>        -0.6359
     31 C21         0.6152   -4.1413    8.4048 C.2       1 <0>         0.6921
     32 N6         -0.7113   -3.8200    8.5160 N.pl3     1 <0>        -0.8732
     33 N7          1.5499   -3.4509    9.1293 N.pl3     1 <0>        -0.8289
     34 H1          4.7084   -0.2491   -3.3260 H         1 <0>         0.0260
     35 H2          3.4488    0.9797   -3.5938 H         1 <0>         0.0711
     36 H3          4.6562    1.2087   -2.3061 H         1 <0>         0.0709
     37 H4          1.7480   -0.6151   -3.3843 H         1 <0>         0.0894
     38 H5          2.8533   -1.9630   -3.0219 H         1 <0>         0.0383
     39 H6          0.6052   -0.9141   -1.2408 H         1 <0>         0.0812
     40 H7          0.6588   -2.4863   -2.0810 H         1 <0>         0.0965
     41 H8          2.5251   -0.6489    0.7343 H         1 <0>         0.0775
     42 H9          3.5684   -2.0843    0.9123 H         1 <0>         0.1014
     43 H10         4.5125   -1.7337   -1.3150 H         1 <0>         0.0406
     44 H11         4.6509   -0.2140   -0.3979 H         1 <0>         0.0891
     45 H12         1.6755   -5.4019    2.6111 H         1 <0>         0.0832
     46 H13         0.9900   -5.6621    0.9822 H         1 <0>         0.1022
     47 H14         2.9055   -7.3192    2.1052 H         1 <0>         0.0728
     48 H15         2.7348   -7.0775    0.3382 H         1 <0>         0.0729
     49 H16         4.6499   -5.6628    2.2738 H         1 <0>         0.0747
     50 H17         5.0270   -6.4326    0.6971 H         1 <0>         0.0764
     51 H18         3.9243   -4.6882   -0.5439 H         1 <0>         0.0854
     52 H19         4.6769   -3.7609    0.7916 H         1 <0>         0.0846
     53 H20         3.5496   -2.9777    2.5190 H         1 <0>         0.4240
     54 H21        -0.7151   -4.2457    1.7671 H         1 <0>         0.1475
     55 H22        -2.0194   -6.0859    2.6969 H         1 <0>         0.1452
     56 H23         1.3625   -3.7260    5.4475 H         1 <0>         0.1495
     57 H24        -2.1130   -8.1734    6.9663 H         1 <0>         0.1623
     58 H25        -1.3798   -4.3554    8.0608 H         1 <0>         0.4149
     59 H26        -0.9824   -3.0569    9.0499 H         1 <0>         0.4038
     60 H27         2.4896   -3.6785    9.0505 H         1 <0>         0.4262
     61 H28         1.2724   -2.7344    9.7212 H         1 <0>         0.4135
@<TRIPOS>BOND
     1    1    2 1
     2    1   34 1
     3    1   35 1
     4    1   36 1
     5    2    7 1
     6    2    3 1
     7    3    4 1
     8    3   37 1
     9    3   38 1
    10    4    5 1
    11    4   39 1
    12    4   40 1
    13    5    6 1
    14    5    8 am
    15    6    7 1
    16    6   41 1
    17    6   42 1
    18    7   43 1
    19    7   44 1
    20    8    9 2
    21    8   10 1
    22   10   14 1
    23   10   11 1
    24   10   15 1
    25   11   12 1
    26   11   45 1
    27   11   46 1
    28   12   13 1
    29   12   47 1
    30   12   48 1
    31   13   14 1
    32   13   49 1
    33   13   50 1
    34   14   51 1
    35   14   52 1
    36   15   16 1
    37   15   53 1
    38   16   17 2
    39   16   18 2
    40   16   19 1
    41   19   24 ar
    42   19   20 ar
    43   20   21 ar
    44   20   54 1
    45   21   22 ar
    46   21   55 1
    47   22   28 ar
    48   22   23 ar
    49   23   24 ar
    50   23   25 ar
    51   24   56 1
    52   25   26 ar
    53   25   30 1
    54   26   27 ar
    55   27   28 ar
    56   27   57 1
    57   28   29 1
    58   30   31 2
    59   31   32 1
    60   31   33 1
    61   32   58 1
    62   32   59 1
    63   33   60 1
    64   33   61 1
@<TRIPOS>MOLECULE
CHEMBL226714__1
   62    65     0     0     0
SMALL
USER_CHARGES

@<TRIPOS>ATOM
      1 C1          4.1669    0.6489   -2.6915 C.3       1 <0>        -0.0471
      2 N1          3.2583   -0.0343   -1.7611 N.4       1 <0>        -0.3864
      3 C2          2.4488   -1.0117   -2.4995 C.3       1 <0>        -0.0215
      4 C3          1.4225   -1.6427   -1.5527 C.3       1 <0>         0.0900
      5 N2          2.1375   -2.1986   -0.3934 N.am      1 <0>        -0.6091
      6 C4          3.0966   -1.3328    0.3099 C.3       1 <0>         0.0598
      7 C5          4.0439   -0.7164   -0.7249 C.3       1 <0>        -0.0229
      8 C6          1.9197   -3.4650    0.0132 C.2       1 <0>         0.5269
      9 O1          1.0716   -4.1394   -0.5317 O.2       1 <0>        -0.4914
     10 C7          2.7299   -4.0430    1.1447 C.3       1 <0>         0.1580
     11 C8          2.1173   -5.3779    1.6035 C.3       1 <0>        -0.1526
     12 C9          3.1978   -6.4570    1.3844 C.3       1 <0>        -0.1204
     13 C10         4.5309   -5.6685    1.4003 C.3       1 <0>        -0.1250
     14 C11         4.1613   -4.3574    0.6629 C.3       1 <0>        -0.1142
     15 N3          2.7733   -3.0987    2.2639 N.pl3     1 <0>        -1.1116
     16 S1          1.3651   -2.5001    2.8972 S.o2      1 <0>         2.6826
     17 O2          1.7319   -1.6730    3.9930 O.2       1 <0>        -0.9465
     18 O3          0.5997   -2.0178    1.8014 O.2       1 <0>        -0.9442
     19 C12         0.4759   -3.8638    3.5712 C.ar      1 <0>        -0.6965
     20 C13        -0.4167   -4.5657    2.7656 C.ar      1 <0>        -0.0135
     21 C14        -1.1210   -5.6253    3.2556 C.ar      1 <0>        -0.1254
     22 C15        -0.9425   -6.0132    4.5903 C.ar      1 <0>         0.0474
     23 C16        -0.0330   -5.2978    5.4087 C.ar      1 <0>        -0.1471
     24 C17         0.6766   -4.2194    4.8731 C.ar      1 <0>         0.0608
     25 C18         0.1308   -5.7278    6.7964 C.ar      1 <0>         0.4324
     26 N4         -0.5731   -6.7644    7.2345 N.ar      1 <0>        -0.5186
     27 C19        -1.4206   -7.4262    6.4611 C.ar      1 <0>         0.1538
     28 C20        -1.6384   -7.0990    5.1586 C.ar      1 <0>        -0.1343
     29 Cl1        -2.7654   -8.0115    4.2042 Cl        1 <0>        -0.0443
     30 N5          0.9904   -5.0768    7.6245 N.2       1 <0>        -0.6386
     31 C21         0.5466   -4.1222    8.4160 C.2       1 <0>         0.6942
     32 N6         -0.7951   -3.8565    8.4825 N.pl3     1 <0>        -0.8726
     33 N7          1.4268   -3.3955    9.1724 N.pl3     1 <0>        -0.8278
     34 H1          4.8270   -0.0825   -3.1576 H         1 <0>         0.1223
     35 H2          3.5850    1.1558   -3.4612 H         1 <0>         0.1263
     36 H3          4.7629    1.3805   -2.1459 H         1 <0>         0.1257
     37 H4          1.9296   -0.5106   -3.3164 H         1 <0>         0.1452
     38 H5          3.0969   -1.7894   -2.9034 H         1 <0>         0.1333
     39 H6          0.7170   -0.8823   -1.2178 H         1 <0>         0.1004
     40 H7          0.8883   -2.4396   -2.0701 H         1 <0>         0.1365
     41 H8          2.5602   -0.5410    0.8328 H         1 <0>         0.0964
     42 H9          3.6692   -1.9247    1.0239 H         1 <0>         0.1413
     43 H10         4.6438   -1.5030   -1.1825 H         1 <0>         0.1358
     44 H11         4.7001    0.0024   -0.2341 H         1 <0>         0.1459
     45 H12         1.8523   -5.3238    2.6594 H         1 <0>         0.0896
     46 H13         1.2340   -5.6077    1.0077 H         1 <0>         0.1032
     47 H14         3.1770   -7.1874    2.1932 H         1 <0>         0.0783
     48 H15         3.0566   -6.9483    0.4217 H         1 <0>         0.0754
     49 H16         4.8448   -5.4610    2.4233 H         1 <0>         0.0782
     50 H17         5.3067   -6.2104    0.8594 H         1 <0>         0.0812
     51 H18         4.1757   -4.5097   -0.4163 H         1 <0>         0.0868
     52 H19         4.8436   -3.5556    0.9452 H         1 <0>         0.0839
     53 H20         3.6268   -2.8240    2.6340 H         1 <0>         0.4258
     54 H21        -0.5536   -4.2661    1.7371 H         1 <0>         0.1432
     55 H22        -1.8109   -6.1611    2.6205 H         1 <0>         0.1462
     56 H23         1.3752   -3.6693    5.4860 H         1 <0>         0.1501
     57 H24        -1.9615   -8.2608    6.8822 H         1 <0>         0.1656
     58 H25        -1.4251   -4.4182    8.0044 H         1 <0>         0.4151
     59 H26        -1.1156   -3.1066    9.0078 H         1 <0>         0.4052
     60 H27         2.3772   -3.5837    9.1252 H         1 <0>         0.4266
     61 H28         1.1000   -2.6924    9.7553 H         1 <0>         0.4148
     62 H29         2.6498    0.6442   -1.3280 H         1 <0>         0.4271
@<TRIPOS>BOND
     1    1    2 1
     2    1   34 1
     3    1   35 1
     4    1   36 1
     5    2    7 1
     6    2    3 1
     7    2   62 1
     8    3    4 1
     9    3   37 1
    10    3   38 1
    11    4    5 1
    12    4   39 1
    13    4   40 1
    14    5    6 1
    15    5    8 am
    16    6    7 1
    17    6   41 1
    18    6   42 1
    19    7   43 1
    20    7   44 1
    21    8    9 2
    22    8   10 1
    23   10   14 1
    24   10   11 1
    25   10   15 1
    26   11   12 1
    27   11   45 1
    28   11   46 1
    29   12   13 1
    30   12   47 1
    31   12   48 1
    32   13   14 1
    33   13   49 1
    34   13   50 1
    35   14   51 1
    36   14   52 1
    37   15   16 1
    38   15   53 1
    39   16   17 2
    40   16   18 2
    41   16   19 1
    42   19   24 ar
    43   19   20 ar
    44   20   21 ar
    45   20   54 1
    46   21   22 ar
    47   21   55 1
    48   22   28 ar
    49   22   23 ar
    50   23   24 ar
    51   23   25 ar
    52   24   56 1
    53   25   26 ar
    54   25   30 1
    55   26   27 ar
    56   27   28 ar
    57   27   57 1
    58   28   29 1
    59   30   31 2
    60   31   32 1
    61   31   33 1
    62   32   58 1
    63   32   59 1
    64   33   60 1
    65   33   61 1
@<TRIPOS>MOLECULE
CHEMBL555026
   32    33     0     0     0
SMALL
USER_CHARGES

@<TRIPOS>ATOM
      1 C1          0.1387    1.1424    1.2018 C.3       1 <0>         0.0497
      2 O1          0.0753   -0.1367    0.5676 O.3       1 <0>        -0.3582
      3 C2         -1.1135   -0.7687    0.5837 C.2       1 <0>         0.6473
      4 O2         -2.0709   -0.2485    1.1214 O.2       1 <0>        -0.5368
      5 N1         -1.2415   -1.9783    0.0033 N.am      1 <0>        -0.6518
      6 C3         -2.4459   -2.6750    0.1013 C.ar      1 <0>         0.1775
      7 C4         -3.6449   -1.9943    0.1055 C.ar      1 <0>        -0.1076
      8 C5         -4.8510   -2.6802    0.2029 C.ar      1 <0>        -0.0538
      9 C6         -4.8824   -4.0391    0.2967 C.ar      1 <0>        -0.1260
     10 C7         -3.6846   -4.7713    0.2961 C.ar      1 <0>         0.0039
     11 C8         -2.4485   -4.0845    0.1914 C.ar      1 <0>        -0.0759
     12 C9         -1.2518   -4.8123    0.1852 C.ar      1 <0>        -0.0149
     13 C10        -1.2939   -6.1940    0.2757 C.ar      1 <0>        -0.1531
     14 C11        -2.5256   -6.8655    0.3729 C.ar      1 <0>        -0.0936
     15 C12        -3.6943   -6.1757    0.3920 C.ar      1 <0>        -0.0738
     16 C13        -0.0346   -6.9682    0.2696 C.cat     1 <0>         0.6001
     17 N2         -0.0694   -8.2971    0.3564 N.pl3     1 <0>        -0.7600
     18 N3          1.1349   -6.3371    0.1773 N.pl3     1 <0>        -0.7659
     19 H1          1.1499    1.5403    1.1169 H         1 <0>         0.1133
     20 H2         -0.5615    1.8231    0.7175 H         1 <0>         0.0690
     21 H3         -0.1240    1.0393    2.2546 H         1 <0>         0.0677
     22 H4         -0.4960   -2.3645   -0.4826 H         1 <0>         0.4166
     23 H5         -3.6477   -0.9168    0.0327 H         1 <0>         0.1562
     24 H6         -5.7781   -2.1263    0.2046 H         1 <0>         0.1453
     25 H7         -5.8293   -4.5532    0.3718 H         1 <0>         0.1460
     26 H8         -0.3038   -4.3004    0.1100 H         1 <0>         0.1342
     27 H9         -2.5413   -7.9431    0.4420 H         1 <0>         0.1368
     28 H10        -4.6325   -6.7052    0.4678 H         1 <0>         0.1534
     29 H11        -0.9210   -8.7567    0.4236 H         1 <0>         0.4451
     30 H12         1.1602   -5.3695    0.1141 H         1 <0>         0.4416
     31 H13         1.9612   -6.8452    0.1733 H         1 <0>         0.4342
     32 H14         0.7569   -8.8052    0.3525 H         1 <0>         0.4334
@<TRIPOS>BOND
     1    1    2 1
     2    1   19 1
     3    1   20 1
     4    1   21 1
     5    2    3 1
     6    3    4 2
     7    3    5 am
     8    5    6 1
     9    5   22 1
    10    6   11 ar
    11    6    7 ar
    12    7    8 ar
    13    7   23 1
    14    8    9 ar
    15    8   24 1
    16    9   10 ar
    17    9   25 1
    18   10   15 ar
    19   10   11 ar
    20   11   12 ar
    21   12   13 ar
    22   12   26 1
    23   13   14 ar
    24   13   16 1
    25   14   15 ar
    26   14   27 1
    27   15   28 1
    28   16   17 2
    29   16   18 1
    30   17   29 1
    31   17   32 1
    32   18   30 1
    33   18   31 1
@<TRIPOS>MOLECULE
CHEMBL549396
   31    33     0     0     0
SMALL
USER_CHARGES

@<TRIPOS>ATOM
      1 C1         -0.0174    1.7080    0.6195 C.ar      1 <0>        -0.0114
      2 C2          1.2223    2.2973    0.4160 C.ar      1 <0>        -0.1302
      3 C3          2.3459    1.5392    0.1795 C.ar      1 <0>         0.2578
      4 C4          2.2629    0.1173    0.1369 C.ar      1 <0>        -0.1640
      5 C5          3.2963   -0.8072   -0.0898 C.2       1 <0>         0.0205
      6 C6          3.0266   -2.1395   -0.0941 C.2       1 <0>        -0.2841
      7 S1          1.2717   -2.1909    0.2255 S.3       1 <0>         0.1364
      8 C7          0.9821   -0.4436    0.3491 C.ar      1 <0>        -0.0499
      9 C8         -0.1328    0.3324    0.5852 C.ar      1 <0>        -0.1119
     10 C9          3.9523   -3.2614   -0.3095 C.cat     1 <0>         0.6499
     11 N1          3.4989   -4.5168   -0.2770 N.pl3     1 <0>        -0.7606
     12 N2          5.2464   -3.0248   -0.5376 N.pl3     1 <0>        -0.7612
     13 N3          3.5746    2.1668   -0.0204 N.pl3     1 <0>        -0.6402
     14 C10         3.6344    3.3710   -0.7027 C.ar      1 <0>         0.5426
     15 N4          2.5322    3.8574   -1.2541 N.ar      1 <0>        -0.5530
     16 C11         2.5547    5.0046   -1.9120 C.ar      1 <0>         0.1894
     17 C12         3.7498    5.6985   -2.0205 C.ar      1 <0>        -0.2605
     18 C13         4.8838    5.1610   -1.4318 C.ar      1 <0>         0.1920
     19 N5          4.7914    4.0117   -0.7838 N.ar      1 <0>        -0.5545
     20 H1         -0.8861    2.3214    0.8081 H         1 <0>         0.1542
     21 H2          1.3069    3.3736    0.4435 H         1 <0>         0.1499
     22 H3          4.3044   -0.4595   -0.2609 H         1 <0>         0.1424
     23 H4         -1.0938   -0.1343    0.7429 H         1 <0>         0.1478
     24 H5          2.5587   -4.6887   -0.1113 H         1 <0>         0.4451
     25 H6          5.5759   -2.1128   -0.5613 H         1 <0>         0.4438
     26 H7          5.8571   -3.7649   -0.6797 H         1 <0>         0.4367
     27 H8          4.3877    1.7604    0.3182 H         1 <0>         0.4251
     28 H9          1.6530    5.3958   -2.3596 H         1 <0>         0.1777
     29 H10         3.7964    6.6372   -2.5524 H         1 <0>         0.1556
     30 H11         5.8306    5.6766   -1.4979 H         1 <0>         0.1777
     31 H12         4.1095   -5.2569   -0.4191 H         1 <0>         0.4367
@<TRIPOS>BOND
     1    1    9 ar
     2    1    2 ar
     3    1   20 1
     4    2    3 ar
     5    2   21 1
     6    3    4 ar
     7    3   13 1
     8    4    8 ar
     9    4    5 1
    10    5    6 2
    11    5   22 1
    12    6    7 1
    13    6   10 1
    14    7    8 1
    15    8    9 ar
    16    9   23 1
    17   10   11 2
    18   10   12 1
    19   11   24 1
    20   11   31 1
    21   12   25 1
    22   12   26 1
    23   13   14 1
    24   13   27 1
    25   14   19 ar
    26   14   15 ar
    27   15   16 ar
    28   16   17 ar
    29   16   28 1
    30   17   18 ar
    31   17   29 1
    32   18   19 ar
    33   18   30 1
@<TRIPOS>MOLECULE
CHEMBL353872
   53    56     0     0     0
SMALL
USER_CHARGES

@<TRIPOS>ATOM
      1 C1         -0.5917    1.4379   -1.2519 C.3       1 <0>        -0.2209
      2 S1         -0.3265   -0.2319   -0.5946 S.3       1 <0>         0.1731
      3 C2         -1.7796   -0.5546    0.3483 C.2       1 <0>        -0.0857
      4 C3         -2.1122   -1.6923    1.0815 C.2       1 <0>        -0.0801
      5 C4         -3.3196   -1.7124    1.7443 C.2       1 <0>         0.0212
      6 C5         -4.1456   -0.6057    1.6528 C.2       1 <0>        -0.3233
      7 S2         -3.1985    0.4949    0.6150 S.3       1 <0>         0.1781
      8 C6         -5.4595   -0.3903    2.2578 C.cat     1 <0>         0.6519
      9 N1         -6.1114    0.7607    2.0508 N.pl3     1 <0>        -0.7728
     10 N2         -6.0105   -1.3442    3.0188 N.pl3     1 <0>        -0.7665
     11 C7         -1.1893   -2.8528    1.1462 C.2       1 <0>         0.1527
     12 C8         -1.5001   -3.9783    1.8552 C.2       1 <0>        -0.2771
     13 S3         -0.0481   -4.9729    1.5564 S.3       1 <0>         0.1573
     14 C9          0.7886   -3.8846    0.5835 C.2       1 <0>         0.3182
     15 N3         -0.0221   -2.8518    0.5133 N.2       1 <0>        -0.5775
     16 N4          2.0330   -4.0415   -0.0073 N.pl3     1 <0>        -0.6120
     17 C10         2.6963   -5.2688    0.0759 C.ar      1 <0>         0.1434
     18 C11         1.9717   -6.4540    0.0638 C.ar      1 <0>        -0.1539
     19 C12         2.6303   -7.6650    0.1463 C.ar      1 <0>        -0.0800
     20 C13         4.0096   -7.6987    0.2408 C.ar      1 <0>        -0.0819
     21 C14         4.7340   -6.5207    0.2536 C.ar      1 <0>        -0.0806
     22 C15         4.0822   -5.3065    0.1652 C.ar      1 <0>        -0.1338
     23 C16         4.7249   -9.0221    0.3307 C.3       1 <0>        -0.0485
     24 C17         5.5155   -9.0868    1.6390 C.3       1 <0>        -0.1106
     25 C18         6.2416  -10.4304    1.7302 C.3       1 <0>        -0.1211
     26 C19         7.2011  -10.5729    0.5469 C.3       1 <0>        -0.1223
     27 C20         6.4105  -10.5082   -0.7614 C.3       1 <0>        -0.1212
     28 C21         5.6843   -9.1646   -0.8526 C.3       1 <0>        -0.1108
     29 H1          0.2660    1.7305   -1.8574 H         1 <0>         0.1307
     30 H2         -1.4913    1.4475   -1.8674 H         1 <0>         0.0954
     31 H3         -0.7094    2.1392   -0.4257 H         1 <0>         0.0954
     32 H4         -3.6158   -2.5745    2.3234 H         1 <0>         0.1553
     33 H5         -5.7122    1.4517    1.4994 H         1 <0>         0.4408
     34 H6         -5.5383   -2.1781    3.1689 H         1 <0>         0.4432
     35 H7         -6.8820   -1.2014    3.4201 H         1 <0>         0.4344
     36 H8         -2.3816   -4.2041    2.4368 H         1 <0>         0.1931
     37 H9          2.4433   -3.2994   -0.4784 H         1 <0>         0.4252
     38 H10         0.8945   -6.4283   -0.0096 H         1 <0>         0.1283
     39 H11         2.0676   -8.5867    0.1373 H         1 <0>         0.1315
     40 H12         5.8110   -6.5506    0.3279 H         1 <0>         0.1321
     41 H13         4.6488   -4.3871    0.1701 H         1 <0>         0.1307
     42 H14         3.9954   -9.8317    0.3065 H         1 <0>         0.0804
     43 H15         6.2449   -8.2772    1.6631 H         1 <0>         0.0642
     44 H16         4.8319   -8.9853    2.4819 H         1 <0>         0.0633
     45 H17         6.8048  -10.4765    2.6622 H         1 <0>         0.0639
     46 H18         5.5122  -11.2400    1.7060 H         1 <0>         0.0628
     47 H19         7.9305   -9.7633    0.5711 H         1 <0>         0.0618
     48 H20         7.7184  -11.5301    0.6119 H         1 <0>         0.0629
     49 H21         7.0940  -10.6097   -1.6044 H         1 <0>         0.0641
     50 H22         5.6811  -11.3178   -0.7855 H         1 <0>         0.0628
     51 H23         5.1211   -9.1185   -1.7846 H         1 <0>         0.0634
     52 H24         6.4137   -8.3550   -0.8284 H         1 <0>         0.0643
     53 H25        -6.9829    0.9035    2.4521 H         1 <0>         0.4348
@<TRIPOS>BOND
     1    1    2 1
     2    1   29 1
     3    1   30 1
     4    1   31 1
     5    2    3 1
     6    3    7 1
     7    3    4 2
     8    4    5 1
     9    4   11 1
    10    5    6 2
    11    5   32 1
    12    6    7 1
    13    6    8 1
    14    8    9 2
    15    8   10 1
    16    9   33 1
    17    9   53 1
    18   10   34 1
    19   10   35 1
    20   11   15 1
    21   11   12 2
    22   12   13 1
    23   12   36 1
    24   13   14 1
    25   14   15 2
    26   14   16 1
    27   16   17 1
    28   16   37 1
    29   17   22 ar
    30   17   18 ar
    31   18   19 ar
    32   18   38 1
    33   19   20 ar
    34   19   39 1
    35   20   21 ar
    36   20   23 1
    37   21   22 ar
    38   21   40 1
    39   22   41 1
    40   23   28 1
    41   23   24 1
    42   23   42 1
    43   24   25 1
    44   24   43 1
    45   24   44 1
    46   25   26 1
    47   25   45 1
    48   25   46 1
    49   26   27 1
    50   26   47 1
    51   26   48 1
    52   27   28 1
    53   27   49 1
    54   27   50 1
    55   28   51 1
    56   28   52 1
@<TRIPOS>MOLECULE
CHEMBL552433
   47    50     0     0     0
SMALL
USER_CHARGES

@<TRIPOS>ATOM
      1 C1         -0.0167    1.4030   -0.0013 C.ar      1 <0>        -0.0678
      2 C2          1.1498    2.0982   -0.0159 C.ar      1 <0>        -0.0987
      3 C3          2.3858    1.4304   -0.0404 C.ar      1 <0>        -0.1466
      4 C4          2.4379    0.0470   -0.0497 C.ar      1 <0>        -0.0221
      5 C5          1.2441   -0.6897   -0.0345 C.ar      1 <0>        -0.0497
      6 C6          0.0023   -0.0042   -0.0103 C.ar      1 <0>        -0.0239
      7 C7         -1.1919   -0.7410    0.0040 C.ar      1 <0>        -0.0433
      8 C8         -1.1397   -2.1248   -0.0058 C.ar      1 <0>        -0.0949
      9 C9          0.0975   -2.7928   -0.0298 C.ar      1 <0>        -0.0822
     10 C10         1.2633   -2.0974   -0.0434 C.ar      1 <0>        -0.0947
     11 C11        -2.3945   -2.9060    0.0096 C.2       1 <0>         0.5491
     12 O1         -3.4668   -2.3335    0.0308 O.2       1 <0>        -0.5087
     13 N1         -2.3499   -4.2530    0.0002 N.am      1 <0>        -0.6568
     14 C12        -3.5332   -4.9937    0.1132 C.ar      1 <0>         0.0759
     15 C13        -4.7038   -4.5255   -0.4697 C.ar      1 <0>        -0.0713
     16 C14        -5.8679   -5.2570   -0.3547 C.ar      1 <0>        -0.1738
     17 C15        -5.8703   -6.4606    0.3421 C.ar      1 <0>         0.2141
     18 C16        -4.7027   -6.9315    0.9219 C.ar      1 <0>        -0.1362
     19 C17        -3.5347   -6.1975    0.8023 C.ar      1 <0>        -0.0931
     20 C18        -4.6682   -8.2358    1.6740 C.3       1 <0>        -0.0722
     21 C19        -6.0742   -8.6325    2.1233 C.3       1 <0>        -0.1399
     22 C20        -7.0160   -8.5759    0.9135 C.3       1 <0>         0.1207
     23 N2         -7.0667   -7.1829    0.4491 N.pl3     1 <0>        -0.7512
     24 C21         3.6422    2.2122   -0.0569 C.cat     1 <0>         0.6014
     25 N3          3.6703    3.4151   -0.6271 N.pl3     1 <0>        -0.7565
     26 N4          4.7444    1.7128    0.4984 N.pl3     1 <0>        -0.7599
     27 H1         -0.9591    1.9300    0.0216 H         1 <0>         0.1531
     28 H2          1.1271    3.1780   -0.0090 H         1 <0>         0.1402
     29 H3          3.3906   -0.4613   -0.0689 H         1 <0>         0.1466
     30 H4         -2.1446   -0.2327    0.0228 H         1 <0>         0.1569
     31 H5          0.1205   -3.8725   -0.0372 H         1 <0>         0.1395
     32 H6          2.2058   -2.6243   -0.0625 H         1 <0>         0.1459
     33 H7         -1.4982   -4.7095   -0.0848 H         1 <0>         0.4072
     34 H8         -4.7028   -3.5911   -1.0112 H         1 <0>         0.1371
     35 H9         -6.7793   -4.8940   -0.8065 H         1 <0>         0.1259
     36 H10        -2.6223   -6.5615    1.2511 H         1 <0>         0.1239
     37 H11        -4.2647   -9.0140    1.0262 H         1 <0>         0.0739
     38 H12        -4.0275   -8.1294    2.5494 H         1 <0>         0.0755
     39 H13        -6.0568   -9.6454    2.5255 H         1 <0>         0.0799
     40 H14        -6.4218   -7.9394    2.8895 H         1 <0>         0.0704
     41 H15        -6.6345   -9.2165    0.1184 H         1 <0>         0.0607
     42 H16        -8.0134   -8.9039    1.2064 H         1 <0>         0.0818
     43 H17        -7.9142   -6.7698    0.2207 H         1 <0>         0.4035
     44 H18         4.4938    3.9275   -0.6379 H         1 <0>         0.4335
     45 H19         4.7239    0.8365    0.9138 H         1 <0>         0.4458
     46 H20         5.5679    2.2253    0.4876 H         1 <0>         0.4338
     47 H21         2.8673    3.7789   -1.0317 H         1 <0>         0.4474
@<TRIPOS>BOND
     1    1    6 ar
     2    1    2 ar
     3    1   27 1
     4    2    3 ar
     5    2   28 1
     6    3    4 ar
     7    3   24 1
     8    4    5 ar
     9    4   29 1
    10    5   10 ar
    11    5    6 ar
    12    6    7 ar
    13    7    8 ar
    14    7   30 1
    15    8    9 ar
    16    8   11 1
    17    9   10 ar
    18    9   31 1
    19   10   32 1
    20   11   12 2
    21   11   13 am
    22   13   14 1
    23   13   33 1
    24   14   19 ar
    25   14   15 ar
    26   15   16 ar
    27   15   34 1
    28   16   17 ar
    29   16   35 1
    30   17   23 1
    31   17   18 ar
    32   18   19 ar
    33   18   20 1
    34   19   36 1
    35   20   21 1
    36   20   37 1
    37   20   38 1
    38   21   22 1
    39   21   39 1
    40   21   40 1
    41   22   23 1
    42   22   41 1
    43   22   42 1
    44   23   43 1
    45   24   25 2
    46   24   26 1
    47   25   44 1
    48   25   47 1
    49   26   45 1
    50   26   46 1
@<TRIPOS>MOLECULE
CHEMBL50649
   57    60     0     0     0
SMALL
USER_CHARGES

@<TRIPOS>ATOM
      1 C1         -0.0167    1.3781    0.0096 C.ar      1 <0>        -0.1175
      2 C2          1.1709    2.0855    0.0021 C.ar      1 <0>        -0.1225
      3 C3          2.3773    1.4107   -0.0130 C.ar      1 <0>        -0.1249
      4 C4          2.3960    0.0285   -0.0201 C.ar      1 <0>        -0.0849
      5 C5          1.2084   -0.6789   -0.0117 C.ar      1 <0>        -0.1048
      6 C6          0.0021   -0.0041    0.0020 C.ar      1 <0>        -0.1026
      7 C7          3.7112   -0.7071   -0.0376 C.3       1 <0>        -0.0105
      8 C8          4.1644   -0.9594    1.3773 C.2       1 <0>        -0.1001
      9 C9          4.9948   -0.0770    2.1968 C.ar      1 <0>        -0.1061
     10 C10         5.5898    1.1652    1.9780 C.ar      1 <0>         0.0202
     11 C11         6.3383    1.7519    2.9925 C.ar      1 <0>        -0.1938
     12 C12         6.4903    1.0963    4.2218 C.ar      1 <0>        -0.0593
     13 C13         5.9099   -0.1185    4.4394 C.ar      1 <0>        -0.1115
     14 C14         5.1554   -0.7258    3.4380 C.ar      1 <0>         0.1560
     15 N1          4.4697   -1.9160    3.3711 N.pl3     1 <0>        -0.5683
     16 H1          4.4106   -2.5660    4.0886 H         1 <0>         0.4271
     17 C15         3.8757   -2.0453    2.1367 C.2       1 <0>         0.1449
     18 C16         3.0513   -3.1933    1.7036 C.ar      1 <0>        -0.0760
     19 C17         1.8295   -3.4533    2.3255 C.ar      1 <0>        -0.0647
     20 C18         1.0642   -4.5260    1.9175 C.ar      1 <0>        -0.0601
     21 C19         1.5033   -5.3468    0.8931 C.ar      1 <0>        -0.0564
     22 C20         2.7124   -5.0995    0.2695 C.ar      1 <0>        -0.1139
     23 C21         3.4896   -4.0215    0.6639 C.ar      1 <0>         0.1503
     24 O1          4.6748   -3.7737    0.0480 O.3       1 <0>        -0.4768
     25 Br1         3.3028   -6.2284   -1.1280 Br        1 <0>        -0.0275
     26 C22        -0.2551   -4.8056    2.5900 C.3       1 <0>        -0.0898
     27 C23        -1.3702   -4.0576    1.8565 C.3       1 <0>        -0.0849
     28 C24        -2.7096   -4.3414    2.5394 C.3       1 <0>        -0.1853
     29 C25        -3.8079   -3.6047    1.8169 C.2       1 <0>         0.4881
     30 O2         -3.5438   -2.9163    0.8458 O.co2     1 <0>        -0.6989
     31 O3         -4.9605   -3.6969    2.2034 O.co2     1 <0>        -0.7037
     32 C26         6.9748    3.0678    2.7740 C.cat     1 <0>         0.6058
     33 N2          7.6920    3.6304    3.7455 N.pl3     1 <0>        -0.7697
     34 N3          6.8311    3.6913    1.6055 N.pl3     1 <0>        -0.7702
     35 H2         -0.9591    1.9053    0.0259 H         1 <0>         0.1233
     36 H3          1.1563    3.1654    0.0076 H         1 <0>         0.1171
     37 H4          3.3051    1.9634   -0.0196 H         1 <0>         0.1073
     38 H5          1.2231   -1.7588   -0.0176 H         1 <0>         0.1191
     39 H6         -0.9258   -0.5567    0.0082 H         1 <0>         0.1358
     40 H7          3.5884   -1.6586   -0.5549 H         1 <0>         0.0958
     41 H8          4.4573   -0.1052   -0.5563 H         1 <0>         0.0792
     42 H9          5.4705    1.6669    1.0290 H         1 <0>         0.1352
     43 H10         7.0734    1.5579    5.0050 H         1 <0>         0.1355
     44 H11         6.0360   -0.6119    5.3918 H         1 <0>         0.1424
     45 H12         1.4837   -2.8157    3.1256 H         1 <0>         0.1349
     46 H13         0.8985   -6.1849    0.5795 H         1 <0>         0.1443
     47 H14         5.4304   -4.2189    0.4554 H         1 <0>         0.3905
     48 H15        -0.4571   -5.8764    2.5629 H         1 <0>         0.0764
     49 H16        -0.2131   -4.4699    3.6262 H         1 <0>         0.0731
     50 H17        -1.1682   -2.9868    1.8837 H         1 <0>         0.0606
     51 H18        -1.4123   -4.3932    0.8203 H         1 <0>         0.0631
     52 H19        -2.9115   -5.4122    2.5122 H         1 <0>         0.0577
     53 H20        -2.6675   -4.0058    3.5755 H         1 <0>         0.0556
     54 H21         7.7966    3.1764    4.5963 H         1 <0>         0.4425
     55 H22         6.3089    3.2817    0.8981 H         1 <0>         0.4428
     56 H23         7.2488    4.5550    1.4620 H         1 <0>         0.4303
     57 H24         8.1097    4.4940    3.6020 H         1 <0>         0.4297
@<TRIPOS>BOND
     1    1    6 ar
     2    1    2 ar
     3    1   35 1
     4    2    3 ar
     5    2   36 1
     6    3    4 ar
     7    3   37 1
     8    4    5 ar
     9    4    7 1
    10    5    6 ar
    11    5   38 1
    12    6   39 1
    13    7    8 1
    14    7   40 1
    15    7   41 1
    16    8   17 2
    17    8    9 1
    18    9   14 ar
    19    9   10 ar
    20   10   11 ar
    21   10   42 1
    22   11   12 ar
    23   11   32 1
    24   12   13 ar
    25   12   43 1
    26   13   14 ar
    27   13   44 1
    28   14   15 1
    29   15   16 1
    30   15   17 1
    31   17   18 1
    32   18   23 ar
    33   18   19 ar
    34   19   20 ar
    35   19   45 1
    36   20   21 ar
    37   20   26 1
    38   21   22 ar
    39   21   46 1
    40   22   23 ar
    41   22   25 1
    42   23   24 1
    43   24   47 1
    44   26   27 1
    45   26   48 1
    46   26   49 1
    47   27   28 1
    48   27   50 1
    49   27   51 1
    50   28   29 1
    51   28   52 1
    52   28   53 1
    53   29   30 2
    54   29   31 1
    55   32   33 2
    56   32   34 1
    57   33   54 1
    58   33   57 1
    59   34   55 1
    60   34   56 1
@<TRIPOS>MOLECULE
CHEMBL50649__1
   56    59     0     0     0
SMALL
USER_CHARGES

@<TRIPOS>ATOM
      1 C1         -0.0167    1.3781    0.0096 C.ar      1 <0>        -0.1281
      2 C2          1.1709    2.0855    0.0021 C.ar      1 <0>        -0.1301
      3 C3          2.3773    1.4107   -0.0130 C.ar      1 <0>        -0.1303
      4 C4          2.3960    0.0285   -0.0201 C.ar      1 <0>        -0.0707
      5 C5          1.2084   -0.6789   -0.0117 C.ar      1 <0>        -0.0972
      6 C6          0.0021   -0.0041    0.0020 C.ar      1 <0>        -0.1050
      7 C7          3.7112   -0.7071   -0.0376 C.3       1 <0>        -0.0030
      8 C8          4.1644   -0.9594    1.3773 C.2       1 <0>        -0.1381
      9 C9          4.9948   -0.0770    2.1968 C.ar      1 <0>        -0.0939
     10 C10         5.5898    1.1652    1.9780 C.ar      1 <0>         0.0117
     11 C11         6.3383    1.7519    2.9925 C.ar      1 <0>        -0.2060
     12 C12         6.4903    1.0963    4.2218 C.ar      1 <0>        -0.0770
     13 C13         5.9099   -0.1185    4.4394 C.ar      1 <0>        -0.1114
     14 C14         5.1554   -0.7258    3.4380 C.ar      1 <0>         0.1402
     15 N1          4.4697   -1.9160    3.3711 N.pl3     1 <0>        -0.5683
     16 H1          4.4106   -2.5660    4.0886 H         1 <0>         0.4213
     17 C15         3.8757   -2.0453    2.1367 C.2       1 <0>         0.2336
     18 C16         3.0513   -3.1933    1.7036 C.ar      1 <0>        -0.2386
     19 C17         1.8295   -3.4533    2.3255 C.ar      1 <0>        -0.0203
     20 C18         1.0642   -4.5260    1.9175 C.ar      1 <0>        -0.1996
     21 C19         1.5033   -5.3468    0.8931 C.ar      1 <0>        -0.0153
     22 C20         2.7124   -5.0995    0.2695 C.ar      1 <0>        -0.2195
     23 C21         3.4896   -4.0215    0.6639 C.ar      1 <0>         0.3175
     24 O1          4.6748   -3.7737    0.0480 O.3       1 <0>        -0.6857
     25 Br1         3.3028   -6.2284   -1.1280 Br        1 <0>        -0.0933
     26 C22        -0.2551   -4.8056    2.5900 C.3       1 <0>        -0.0607
     27 C23        -1.3702   -4.0576    1.8565 C.3       1 <0>        -0.0836
     28 C24        -2.7096   -4.3414    2.5394 C.3       1 <0>        -0.1836
     29 C25        -3.8079   -3.6047    1.8169 C.2       1 <0>         0.4886
     30 O2         -3.5438   -2.9163    0.8458 O.co2     1 <0>        -0.6972
     31 O3         -4.9605   -3.6969    2.2034 O.co2     1 <0>        -0.7152
     32 C26         6.9748    3.0678    2.7740 C.cat     1 <0>         0.6061
     33 N2          7.6920    3.6304    3.7455 N.pl3     1 <0>        -0.7780
     34 N3          6.8311    3.6913    1.6055 N.pl3     1 <0>        -0.7761
     35 H2         -0.9591    1.9053    0.0259 H         1 <0>         0.1167
     36 H3          1.1563    3.1654    0.0076 H         1 <0>         0.1103
     37 H4          3.3051    1.9634   -0.0196 H         1 <0>         0.1037
     38 H5          1.2231   -1.7588   -0.0176 H         1 <0>         0.1287
     39 H6         -0.9258   -0.5567    0.0082 H         1 <0>         0.1324
     40 H7          3.5884   -1.6586   -0.5549 H         1 <0>         0.1039
     41 H8          4.4573   -0.1052   -0.5563 H         1 <0>         0.0652
     42 H9          5.4705    1.6669    1.0290 H         1 <0>         0.1286
     43 H10         7.0734    1.5579    5.0050 H         1 <0>         0.1265
     44 H11         6.0360   -0.6119    5.3918 H         1 <0>         0.1346
     45 H12         1.4837   -2.8157    3.1256 H         1 <0>         0.0970
     46 H13         0.8985   -6.1849    0.5795 H         1 <0>         0.1076
     47 H14        -0.4571   -5.8764    2.5629 H         1 <0>         0.0537
     48 H15        -0.2131   -4.4699    3.6262 H         1 <0>         0.0504
     49 H16        -1.1682   -2.9868    1.8837 H         1 <0>         0.0548
     50 H17        -1.4123   -4.3932    0.8203 H         1 <0>         0.0570
     51 H18        -2.9115   -5.4122    2.5122 H         1 <0>         0.0524
     52 H19        -2.6675   -4.0058    3.5755 H         1 <0>         0.0504
     53 H20         8.1097    4.4940    3.6020 H         1 <0>         0.4243
     54 H21         6.3089    3.2817    0.8981 H         1 <0>         0.4429
     55 H22         7.2488    4.5550    1.4620 H         1 <0>         0.4251
     56 H23         7.7966    3.1764    4.5963 H         1 <0>         0.4408
@<TRIPOS>BOND
     1    1    6 ar
     2    1    2 ar
     3    1   35 1
     4    2    3 ar
     5    2   36 1
     6    3    4 ar
     7    3   37 1
     8    4    5 ar
     9    4    7 1
    10    5    6 ar
    11    5   38 1
    12    6   39 1
    13    7    8 1
    14    7   40 1
    15    7   41 1
    16    8   17 2
    17    8    9 1
    18    9   14 ar
    19    9   10 ar
    20   10   11 ar
    21   10   42 1
    22   11   12 ar
    23   11   32 1
    24   12   13 ar
    25   12   43 1
    26   13   14 ar
    27   13   44 1
    28   14   15 1
    29   15   16 1
    30   15   17 1
    31   17   18 1
    32   18   23 ar
    33   18   19 ar
    34   19   20 ar
    35   19   45 1
    36   20   21 ar
    37   20   26 1
    38   21   22 ar
    39   21   46 1
    40   22   23 ar
    41   22   25 1
    42   23   24 1
    43   26   27 1
    44   26   47 1
    45   26   48 1
    46   27   28 1
    47   27   49 1
    48   27   50 1
    49   28   29 1
    50   28   51 1
    51   28   52 1
    52   29   30 2
    53   29   31 1
    54   32   33 2
    55   32   34 1
    56   33   53 1
    57   33   56 1
    58   34   54 1
    59   34   55 1
@<TRIPOS>MOLECULE
CHEMBL239535
   69    72     0     0     0
SMALL
USER_CHARGES

@<TRIPOS>ATOM
      1 C1         -0.2091   -3.0171    0.4584 C.ar      1 <0>        -0.1024
      2 C2          0.5735   -2.5519   -0.5818 C.ar      1 <0>        -0.1210
      3 C3          1.8963   -2.9414   -0.6793 C.ar      1 <0>        -0.0925
      4 C4          2.4365   -3.7957    0.2637 C.ar      1 <0>        -0.1062
      5 C5          1.6542   -4.2602    1.3043 C.ar      1 <0>        -0.0929
      6 C6          0.3310   -3.8718    1.4011 C.ar      1 <0>        -0.1217
      7 C7          3.8783   -4.2211    0.1568 C.3       1 <0>         0.1257
      8 O1          4.7017   -3.2972    0.8712 O.3       1 <0>        -0.3491
      9 C8          6.0269   -3.5354    0.8746 C.2       1 <0>         0.6484
     10 O2          6.4720   -4.5013    0.2869 O.2       1 <0>        -0.5599
     11 N1          6.8596   -2.7024    1.5297 N.am      1 <0>        -0.6947
     12 C9          8.2858   -3.0222    1.6303 C.3       1 <0>        -0.4218
     13 C10         8.7534   -2.8191    3.0728 C.3       1 <0>        -0.0904
     14 C11        10.2205   -3.1480    3.1763 C.ar      1 <0>        -0.1029
     15 C12        10.6191   -4.4398    3.4671 C.ar      1 <0>        -0.0677
     16 C13        11.9628   -4.7444    3.5627 C.ar      1 <0>        -0.1113
     17 C14        12.9139   -3.7518    3.3663 C.ar      1 <0>         0.1090
     18 C15        12.5104   -2.4555    3.0744 C.ar      1 <0>        -0.1459
     19 C16        11.1652   -2.1586    2.9747 C.ar      1 <0>        -0.0712
     20 N2         14.2761   -4.0571    3.4628 N.pl3     1 <0>        -0.6319
     21 C17        15.1417   -3.1564    4.0250 C.cat     1 <0>         0.7449
     22 N3         16.4531   -3.3882    3.9999 N.pl3     1 <0>        -0.7873
     23 N4         14.6720   -2.0489    4.5967 N.pl3     1 <0>        -0.7934
     24 P1          9.2337   -1.9261    0.5242 P.3       1 <0>         2.3014
     25 O3          9.1996   -0.5438    1.0517 O.2       1 <0>        -0.9714
     26 O4         10.7598   -2.4330    0.4453 O.3       1 <0>        -0.6109
     27 C18        11.5237   -1.7499   -0.4473 C.ar      1 <0>         0.0719
     28 C19        11.6005   -2.1759   -1.7654 C.ar      1 <0>        -0.1340
     29 C20        12.3774   -1.4795   -2.6709 C.ar      1 <0>        -0.0973
     30 C21        13.0783   -0.3591   -2.2644 C.ar      1 <0>        -0.1107
     31 C22        13.0038    0.0672   -0.9512 C.ar      1 <0>        -0.1033
     32 C23        12.2234   -0.6222   -0.0433 C.ar      1 <0>        -0.1209
     33 O5          8.5819   -1.9551   -0.9477 O.3       1 <0>        -0.6354
     34 C24         7.7952   -0.8822   -1.2250 C.ar      1 <0>         0.1013
     35 C25         6.4180   -0.9759   -1.0859 C.ar      1 <0>        -0.1390
     36 C26         5.6206    0.1163   -1.3680 C.ar      1 <0>        -0.0960
     37 C27         6.1938    1.3019   -1.7892 C.ar      1 <0>        -0.1123
     38 C28         7.5660    1.3977   -1.9291 C.ar      1 <0>        -0.0933
     39 C29         8.3683    0.3103   -1.6423 C.ar      1 <0>        -0.1125
     40 H1         -1.2413   -2.7093    0.5371 H         1 <0>         0.1279
     41 H2          0.1514   -1.8844   -1.3185 H         1 <0>         0.1289
     42 H3          2.5075   -2.5785   -1.4923 H         1 <0>         0.1254
     43 H4          2.0762   -4.9279    2.0408 H         1 <0>         0.1235
     44 H5         -0.2803   -4.2350    2.2139 H         1 <0>         0.1279
     45 H6          3.9957   -5.2174    0.5831 H         1 <0>         0.0810
     46 H7          4.1756   -4.2372   -0.8918 H         1 <0>         0.0826
     47 H8          6.5147   -1.8913    1.9346 H         1 <0>         0.4224
     48 H9          8.4469   -4.0600    1.3388 H         1 <0>         0.1330
     49 H10         8.5923   -1.7812    3.3643 H         1 <0>         0.1118
     50 H11         8.1866   -3.4744    3.7342 H         1 <0>         0.1027
     51 H12         9.8789   -5.2112    3.6201 H         1 <0>         0.1424
     52 H13        12.2735   -5.7534    3.7902 H         1 <0>         0.1430
     53 H14        13.2477   -1.6813    2.9215 H         1 <0>         0.1410
     54 H15        10.8508   -1.1517    2.7430 H         1 <0>         0.1578
     55 H16        14.6074   -4.9065    3.1317 H         1 <0>         0.4439
     56 H17        17.0661   -2.7504    4.3979 H         1 <0>         0.4439
     57 H18        13.7170   -1.9363    4.7239 H         1 <0>         0.4436
     58 H19        15.2849   -1.3549    4.8859 H         1 <0>         0.4409
     59 H20        11.0538   -3.0513   -2.0832 H         1 <0>         0.1352
     60 H21        12.4375   -1.8107   -3.6971 H         1 <0>         0.1378
     61 H22        13.6854    0.1837   -2.9738 H         1 <0>         0.1350
     62 H23        13.5525    0.9424   -0.6361 H         1 <0>         0.1368
     63 H24        12.1620   -0.2862    0.9813 H         1 <0>         0.1366
     64 H25         5.9698   -1.9020   -0.7576 H         1 <0>         0.1186
     65 H26         4.5485    0.0438   -1.2598 H         1 <0>         0.1343
     66 H27         5.5686    2.1545   -2.0096 H         1 <0>         0.1340
     67 H28         8.0114    2.3248   -2.2586 H         1 <0>         0.1362
     68 H29         9.4404    0.3869   -1.7475 H         1 <0>         0.1282
     69 H30        16.7952   -4.1948    3.5835 H         1 <0>         0.4422
@<TRIPOS>BOND
     1    1    6 ar
     2    1    2 ar
     3    1   40 1
     4    2    3 ar
     5    2   41 1
     6    3    4 ar
     7    3   42 1
     8    4    5 ar
     9    4    7 1
    10    5    6 ar
    11    5   43 1
    12    6   44 1
    13    7    8 1
    14    7   45 1
    15    7   46 1
    16    8    9 1
    17    9   10 2
    18    9   11 am
    19   11   12 1
    20   11   47 1
    21   12   13 1
    22   12   24 1
    23   12   48 1
    24   13   14 1
    25   13   49 1
    26   13   50 1
    27   14   19 ar
    28   14   15 ar
    29   15   16 ar
    30   15   51 1
    31   16   17 ar
    32   16   52 1
    33   17   18 ar
    34   17   20 1
    35   18   19 ar
    36   18   53 1
    37   19   54 1
    38   20   21 1
    39   20   55 1
    40   21   22 2
    41   21   23 1
    42   22   56 1
    43   22   69 1
    44   23   57 1
    45   23   58 1
    46   24   25 2
    47   24   26 1
    48   24   33 1
    49   26   27 1
    50   27   32 ar
    51   27   28 ar
    52   28   29 ar
    53   28   59 1
    54   29   30 ar
    55   29   60 1
    56   30   31 ar
    57   30   61 1
    58   31   32 ar
    59   31   62 1
    60   32   63 1
    61   33   34 1
    62   34   39 ar
    63   34   35 ar
    64   35   36 ar
    65   35   64 1
    66   36   37 ar
    67   36   65 1
    68   37   38 ar
    69   37   66 1
    70   38   39 ar
    71   38   67 1
    72   39   68 1
@<TRIPOS>MOLECULE
CHEMBL239535__1
   69    72     0     0     0
SMALL
USER_CHARGES

@<TRIPOS>ATOM
      1 C1          5.5245    6.0743   -0.7266 C.ar      1 <0>        -0.1023
      2 C2          6.6994    6.0560    0.0014 C.ar      1 <0>        -0.1213
      3 C3          7.3932    4.8716    0.1644 C.ar      1 <0>        -0.0927
      4 C4          6.9118    3.7052   -0.4003 C.ar      1 <0>        -0.1054
      5 C5          5.7364    3.7233   -1.1276 C.ar      1 <0>        -0.0935
      6 C6          5.0433    4.9081   -1.2917 C.ar      1 <0>        -0.1206
      7 C7          7.6687    2.4141   -0.2235 C.3       1 <0>         0.1247
      8 O1          7.2095    1.7505    0.9558 O.3       1 <0>        -0.3477
      9 C8          7.7884    0.5735    1.2595 C.2       1 <0>         0.6494
     10 O2          8.6597    0.1221    0.5429 O.2       1 <0>        -0.5624
     11 N1          7.4014   -0.1042    2.3584 N.am      1 <0>        -0.6941
     12 C9          7.9702   -1.4239    2.6433 C.3       1 <0>        -0.4235
     13 C10         8.3283   -1.5151    4.1280 C.3       1 <0>        -0.0889
     14 C11         8.9134   -2.8727    4.4210 C.ar      1 <0>        -0.1020
     15 C12         8.0843   -3.9166    4.7883 C.ar      1 <0>        -0.0749
     16 C13         8.6173   -5.1619    5.0576 C.ar      1 <0>        -0.0978
     17 C14         9.9875   -5.3651    4.9591 C.ar      1 <0>         0.1089
     18 C15        10.8175   -4.3147    4.5900 C.ar      1 <0>        -0.1597
     19 C16        10.2776   -3.0732    4.3166 C.ar      1 <0>        -0.0673
     20 N2         10.5308   -6.6255    5.2317 N.pl3     1 <0>        -0.6313
     21 C17        11.7397   -6.7273    5.8678 C.cat     1 <0>         0.7446
     22 N3         12.3209   -7.9177    6.0071 N.pl3     1 <0>        -0.7871
     23 N4         12.3341   -5.6358    6.3469 N.pl3     1 <0>        -0.7940
     24 P1          6.7489   -2.7135    2.2324 P.3       1 <0>         2.2997
     25 O3          5.6427   -2.6763    3.2149 O.2       1 <0>        -0.9709
     26 O4          6.1645   -2.4482    0.7559 O.3       1 <0>        -0.6345
     27 C18         5.0095   -1.7322    0.7390 C.ar      1 <0>         0.0915
     28 C19         3.8113   -2.3380    1.0883 C.ar      1 <0>        -0.1070
     29 C20         2.6386   -1.6080    1.0708 C.ar      1 <0>        -0.0952
     30 C21         2.6584   -0.2747    0.7050 C.ar      1 <0>        -0.1118
     31 C22         3.8511    0.3312    0.3560 C.ar      1 <0>        -0.0973
     32 C23         5.0274   -0.3928    0.3779 C.ar      1 <0>        -0.1366
     33 O5          7.4582   -4.1581    2.2773 O.3       1 <0>        -0.6120
     34 C24         6.6218   -5.1933    2.0024 C.ar      1 <0>         0.0710
     35 C25         5.8435   -5.7442    3.0102 C.ar      1 <0>        -0.1213
     36 C26         4.9937   -6.7962    2.7282 C.ar      1 <0>        -0.1019
     37 C27         4.9187   -7.3004    1.4429 C.ar      1 <0>        -0.1099
     38 C28         5.6936   -6.7534    0.4369 C.ar      1 <0>        -0.0995
     39 C29         6.5405   -5.6973    0.7125 C.ar      1 <0>        -0.1314
     40 H1          4.9801    6.9988   -0.8501 H         1 <0>         0.1278
     41 H2          7.0755    6.9672    0.4426 H         1 <0>         0.1278
     42 H3          8.3116    4.8574    0.7326 H         1 <0>         0.1235
     43 H4          5.3604    2.8122   -1.5690 H         1 <0>         0.1252
     44 H5          4.1252    4.9223   -1.8602 H         1 <0>         0.1290
     45 H6          7.5016    1.7735   -1.0894 H         1 <0>         0.0821
     46 H7          8.7335    2.6272   -0.1292 H         1 <0>         0.0812
     47 H8          6.7464    0.2819    2.9607 H         1 <0>         0.4227
     48 H9          8.8684   -1.5696    2.0432 H         1 <0>         0.1327
     49 H10         9.0585   -0.7441    4.3737 H         1 <0>         0.1021
     50 H11         7.4301   -1.3694    4.7281 H         1 <0>         0.1126
     51 H12         7.0187   -3.7579    4.8651 H         1 <0>         0.1597
     52 H13         7.9693   -5.9768    5.3447 H         1 <0>         0.1459
     53 H14        11.8836   -4.4694    4.5129 H         1 <0>         0.1387
     54 H15        10.9220   -2.2571    4.0249 H         1 <0>         0.1419
     55 H16        10.0514   -7.4272    4.9702 H         1 <0>         0.4447
     56 H17        13.1769   -7.9897    6.4576 H         1 <0>         0.4437
     57 H18        11.8630   -4.7879    6.3483 H         1 <0>         0.4434
     58 H19        13.2382   -5.6888    6.6945 H         1 <0>         0.4403
     59 H20         3.7953   -3.3796    1.3734 H         1 <0>         0.1318
     60 H21         1.7056   -2.0792    1.3427 H         1 <0>         0.1366
     61 H22         1.7405    0.2942    0.6916 H         1 <0>         0.1334
     62 H23         3.8639    1.3727    0.0703 H         1 <0>         0.1333
     63 H24         5.9595    0.0821    0.1094 H         1 <0>         0.1203
     64 H25         5.9023   -5.3511    4.0144 H         1 <0>         0.1393
     65 H26         4.3877   -7.2253    3.5123 H         1 <0>         0.1379
     66 H27         4.2540   -8.1231    1.2245 H         1 <0>         0.1347
     67 H28         5.6335   -7.1493   -0.5662 H         1 <0>         0.1370
     68 H29         7.1423   -5.2675   -0.0746 H         1 <0>         0.1344
     69 H30        11.8880   -8.7125    5.6582 H         1 <0>         0.4425
@<TRIPOS>BOND
     1    1    6 ar
     2    1    2 ar
     3    1   40 1
     4    2    3 ar
     5    2   41 1
     6    3    4 ar
     7    3   42 1
     8    4    5 ar
     9    4    7 1
    10    5    6 ar
    11    5   43 1
    12    6   44 1
    13    7    8 1
    14    7   45 1
    15    7   46 1
    16    8    9 1
    17    9   10 2
    18    9   11 am
    19   11   12 1
    20   11   47 1
    21   12   13 1
    22   12   24 1
    23   12   48 1
    24   13   14 1
    25   13   49 1
    26   13   50 1
    27   14   19 ar
    28   14   15 ar
    29   15   16 ar
    30   15   51 1
    31   16   17 ar
    32   16   52 1
    33   17   18 ar
    34   17   20 1
    35   18   19 ar
    36   18   53 1
    37   19   54 1
    38   20   21 1
    39   20   55 1
    40   21   22 2
    41   21   23 1
    42   22   56 1
    43   22   69 1
    44   23   57 1
    45   23   58 1
    46   24   25 2
    47   24   26 1
    48   24   33 1
    49   26   27 1
    50   27   32 ar
    51   27   28 ar
    52   28   29 ar
    53   28   59 1
    54   29   30 ar
    55   29   60 1
    56   30   31 ar
    57   30   61 1
    58   31   32 ar
    59   31   62 1
    60   32   63 1
    61   33   34 1
    62   34   39 ar
    63   34   35 ar
    64   35   36 ar
    65   35   64 1
    66   36   37 ar
    67   36   65 1
    68   37   38 ar
    69   37   66 1
    70   38   39 ar
    71   38   67 1
    72   39   68 1
@<TRIPOS>MOLECULE
CHEMBL597759
   71    75     0     0     0
SMALL
USER_CHARGES

@<TRIPOS>ATOM
      1 C1          1.2355    2.2124    0.2172 C.ar      1 <0>        -0.1041
      2 C2          2.5763    2.4595   -0.0111 C.ar      1 <0>        -0.1133
      3 C3          3.4747    1.4098   -0.0559 C.ar      1 <0>        -0.1041
      4 C4          3.0323    0.1131    0.1281 C.ar      1 <0>        -0.1307
      5 C5          1.6917   -0.1338    0.3574 C.ar      1 <0>        -0.0798
      6 C6          0.7931    0.9157    0.4008 C.ar      1 <0>        -0.1252
      7 C7          4.0116   -1.0312    0.0783 C.3       1 <0>         0.1312
      8 C8          4.0302   -1.6256   -1.3314 C.3       1 <0>         0.0952
      9 O1          2.7027   -1.9947   -1.7103 O.3       1 <0>        -0.3496
     10 C9          2.5443   -2.5373   -2.9324 C.2       1 <0>         0.6461
     11 O2          3.5070   -2.6932   -3.6573 O.2       1 <0>        -0.5405
     12 N1          1.3181   -2.9076   -3.3515 N.am      1 <0>        -0.6428
     13 C10         1.1635   -3.5411   -4.5899 C.ar      1 <0>         0.1808
     14 C11         2.0527   -3.2753   -5.6232 C.ar      1 <0>        -0.1265
     15 C12         1.8975   -3.9020   -6.8440 C.ar      1 <0>        -0.0841
     16 C13         0.8580   -4.7934   -7.0381 C.ar      1 <0>        -0.1274
     17 C14        -0.0290   -5.0597   -6.0116 C.ar      1 <0>        -0.0952
     18 C15         0.1244   -4.4408   -4.7862 C.ar      1 <0>        -0.1277
     19 C16        -0.8389   -4.7367   -3.6657 C.3       1 <0>         0.0998
     20 N2         -1.8357   -3.6611   -3.5801 N.3       1 <0>        -0.5411
     21 C17        -2.6923   -3.6405   -4.7742 C.3       1 <0>         0.0214
     22 C18        -3.6751   -2.4719   -4.6732 C.3       1 <0>        -0.0035
     23 N3         -4.4950   -2.6247   -3.4640 N.4       1 <0>        -0.5088
     24 C19        -3.6279   -2.6189   -2.2784 C.3       1 <0>        -0.0030
     25 C20        -2.6446   -3.7886   -2.3596 C.3       1 <0>         0.0225
     26 O3          3.6172   -2.0367    1.0140 O.3       1 <0>        -0.2923
     27 C21         4.0221   -1.8750    2.2999 C.ar      1 <0>         0.2146
     28 C22         4.6782   -0.7252    2.6684 C.ar      1 <0>        -0.2213
     29 C23         5.1072   -0.5238    3.9729 C.ar      1 <0>         0.0070
     30 C24         4.8724   -1.4954    4.9255 C.ar      1 <0>        -0.1246
     31 C25         4.2153   -2.6547    4.5736 C.ar      1 <0>        -0.0396
     32 C26         3.7584   -2.8949    3.2565 C.ar      1 <0>        -0.1600
     33 C27         3.1019   -4.1223    3.0603 C.2       1 <0>         0.0340
     34 C28         2.9406   -4.9798    4.1022 C.2       1 <0>        -0.2914
     35 S1          3.7223   -4.1157    5.4537 S.3       1 <0>         0.1450
     36 C29         2.2898   -6.2987    4.1116 C.cat     1 <0>         0.6511
     37 N4          2.2267   -7.0038    5.2434 N.pl3     1 <0>        -0.7588
     38 N5          1.7623   -6.7907    2.9883 N.pl3     1 <0>        -0.7640
     39 H1          0.5343    3.0329    0.2567 H         1 <0>         0.1264
     40 H2          2.9218    3.4725   -0.1549 H         1 <0>         0.1306
     41 H3          4.5221    1.6028   -0.2350 H         1 <0>         0.1277
     42 H4          1.3461   -1.1469    0.5008 H         1 <0>         0.1214
     43 H5         -0.2544    0.7227    0.5795 H         1 <0>         0.1208
     44 H6          5.0075   -0.6686    0.3329 H         1 <0>         0.1160
     45 H7          4.4157   -0.8855   -2.0327 H         1 <0>         0.1024
     46 H8          4.6705   -2.5075   -1.3455 H         1 <0>         0.0897
     47 H9          0.5426   -2.7350   -2.7949 H         1 <0>         0.4169
     48 H10         2.8644   -2.5791   -5.4723 H         1 <0>         0.1518
     49 H11         2.5883   -3.6955   -7.6480 H         1 <0>         0.1339
     50 H12         0.7387   -5.2822   -7.9938 H         1 <0>         0.1310
     51 H13        -0.8402   -5.7557   -6.1665 H         1 <0>         0.1261
     52 H14        -1.3422   -5.6839   -3.8599 H         1 <0>         0.0623
     53 H15        -0.2927   -4.8017   -2.7247 H         1 <0>         0.0903
     54 H16        -2.0736   -3.5195   -5.6635 H         1 <0>         0.1284
     55 H17        -3.2461   -4.5769   -4.8408 H         1 <0>         0.0651
     56 H18        -3.1211   -1.5347   -4.6204 H         1 <0>         0.1398
     57 H19        -4.3209   -2.4633   -5.5513 H         1 <0>         0.1412
     58 H20        -5.1514   -1.8607   -3.4042 H         1 <0>         0.4363
     59 H21        -3.0742   -1.6809   -2.2380 H         1 <0>         0.1392
     60 H22        -4.2386   -2.7192   -1.3812 H         1 <0>         0.1385
     61 H23        -3.1977   -4.7275   -2.3864 H         1 <0>         0.0638
     62 H24        -1.9913   -3.7757   -1.4872 H         1 <0>         0.1198
     63 H25         4.8643    0.0379    1.9271 H         1 <0>         0.1476
     64 H26         5.6218    0.3871    4.2412 H         1 <0>         0.1558
     65 H27         5.2029   -1.3475    5.9430 H         1 <0>         0.1505
     66 H28         2.7255   -4.3836    2.0823 H         1 <0>         0.1484
     67 H29         2.6101   -6.6463    6.0596 H         1 <0>         0.4461
     68 H30         1.8081   -6.2784    2.1659 H         1 <0>         0.4425
     69 H31         1.3331   -7.6606    2.9945 H         1 <0>         0.4362
     70 H32         1.7975   -7.8737    5.2496 H         1 <0>         0.4374
     71 H33        -4.9989   -3.4978   -3.5077 H         1 <0>         0.4270
@<TRIPOS>BOND
     1    1    6 ar
     2    1    2 ar
     3    1   39 1
     4    2    3 ar
     5    2   40 1
     6    3    4 ar
     7    3   41 1
     8    4    5 ar
     9    4    7 1
    10    5    6 ar
    11    5   42 1
    12    6   43 1
    13    7    8 1
    14    7   26 1
    15    7   44 1
    16    8    9 1
    17    8   45 1
    18    8   46 1
    19    9   10 1
    20   10   11 2
    21   10   12 am
    22   12   13 1
    23   12   47 1
    24   13   18 ar
    25   13   14 ar
    26   14   15 ar
    27   14   48 1
    28   15   16 ar
    29   15   49 1
    30   16   17 ar
    31   16   50 1
    32   17   18 ar
    33   17   51 1
    34   18   19 1
    35   19   20 1
    36   19   52 1
    37   19   53 1
    38   20   25 1
    39   20   21 1
    40   21   22 1
    41   21   54 1
    42   21   55 1
    43   22   23 1
    44   22   56 1
    45   22   57 1
    46   23   24 1
    47   23   58 1
    48   23   71 1
    49   24   25 1
    50   24   59 1
    51   24   60 1
    52   25   61 1
    53   25   62 1
    54   26   27 1
    55   27   32 ar
    56   27   28 ar
    57   28   29 ar
    58   28   63 1
    59   29   30 ar
    60   29   64 1
    61   30   31 ar
    62   30   65 1
    63   31   35 1
    64   31   32 ar
    65   32   33 1
    66   33   34 2
    67   33   66 1
    68   34   35 1
    69   34   36 1
    70   36   37 2
    71   36   38 1
    72   37   67 1
    73   37   70 1
    74   38   68 1
    75   38   69 1
@<TRIPOS>MOLECULE
CHEMBL597759__1
   71    75     0     0     0
SMALL
USER_CHARGES

@<TRIPOS>ATOM
      1 C1          0.0853    1.4265   -0.0681 C.ar      1 <0>        -0.1024
      2 C2          1.2745    2.1308   -0.0407 C.ar      1 <0>        -0.1137
      3 C3          2.4787    1.4528   -0.0097 C.ar      1 <0>        -0.1037
      4 C4          2.4938    0.0705   -0.0056 C.ar      1 <0>        -0.1333
      5 C5          1.3046   -0.6338   -0.0320 C.ar      1 <0>        -0.0783
      6 C6          0.1003    0.0442   -0.0644 C.ar      1 <0>        -0.1260
      7 C7          3.8066   -0.6686    0.0273 C.3       1 <0>         0.1314
      8 C8          4.0948   -1.1332    1.4563 C.3       1 <0>         0.0951
      9 O1          2.9934   -1.9064    1.9370 O.3       1 <0>        -0.3498
     10 C9          3.0888   -2.3940    3.1884 C.2       1 <0>         0.6463
     11 O2          4.0802   -2.1692    3.8542 O.2       1 <0>        -0.5398
     12 N1          2.0848   -3.1315    3.7027 N.am      1 <0>        -0.6412
     13 C10         2.1466   -3.5685    5.0308 C.ar      1 <0>         0.1808
     14 C11         3.3774   -3.7289    5.6540 C.ar      1 <0>        -0.1342
     15 C12         3.4351   -4.1602    6.9646 C.ar      1 <0>        -0.0847
     16 C13         2.2690   -4.4323    7.6565 C.ar      1 <0>        -0.1290
     17 C14         1.0422   -4.2741    7.0388 C.ar      1 <0>        -0.0937
     18 C15         0.9776   -3.8370    5.7300 C.ar      1 <0>        -0.1268
     19 C16        -0.3602   -3.6584    5.0596 C.3       1 <0>         0.0959
     20 N2         -0.6429   -4.8245    4.2122 N.3       1 <0>        -0.5405
     21 C17        -0.8243   -6.0351    5.0257 C.3       1 <0>         0.0194
     22 C18        -1.0569   -7.2348    4.1046 C.3       1 <0>        -0.0015
     23 N3         -2.2484   -6.9953    3.2798 N.4       1 <0>        -0.5095
     24 C19        -2.0425   -5.7974    2.4552 C.3       1 <0>        -0.0006
     25 C20        -1.8181   -4.5857    3.3625 C.3       1 <0>         0.0188
     26 O3          3.7358   -1.8040   -0.8376 O.3       1 <0>        -0.2924
     27 C21         4.0053   -1.5956   -2.1520 C.ar      1 <0>         0.2158
     28 C22         4.2199   -0.3176   -2.6094 C.ar      1 <0>        -0.2218
     29 C23         4.4979   -0.0649   -3.9455 C.ar      1 <0>         0.0082
     30 C24         4.5620   -1.1156   -4.8391 C.ar      1 <0>        -0.1250
     31 C25         4.3499   -2.4039   -4.3976 C.ar      1 <0>        -0.0390
     32 C26         4.0690   -2.7026   -3.0436 C.ar      1 <0>        -0.1610
     33 C27         3.8828   -4.0653   -2.7528 C.2       1 <0>         0.0356
     34 C28         3.9823   -4.9904   -3.7432 C.2       1 <0>        -0.2933
     35 S1          4.3393   -3.9967   -5.1818 S.3       1 <0>         0.1444
     36 C29         3.8258   -6.4500   -3.6533 C.cat     1 <0>         0.6517
     37 N4          3.9611   -7.2045   -4.7463 N.pl3     1 <0>        -0.7587
     38 N5          3.5485   -7.0205   -2.4786 N.pl3     1 <0>        -0.7656
     39 H1         -0.8557    1.9562   -0.0878 H         1 <0>         0.1272
     40 H2          1.2627    3.2107   -0.0440 H         1 <0>         0.1309
     41 H3          3.4078    2.0030    0.0109 H         1 <0>         0.1275
     42 H4          1.3163   -1.7137   -0.0291 H         1 <0>         0.1218
     43 H5         -0.8288   -0.5060   -0.0855 H         1 <0>         0.1215
     44 H6          4.6050   -0.0063   -0.3074 H         1 <0>         0.1156
     45 H7          4.9981   -1.7431    1.4648 H         1 <0>         0.0897
     46 H8          4.2368   -0.2644    2.0990 H         1 <0>         0.1027
     47 H9          1.3193   -3.3595    3.1523 H         1 <0>         0.4164
     48 H10         4.2884   -3.5168    5.1141 H         1 <0>         0.1574
     49 H11         4.3919   -4.2854    7.4496 H         1 <0>         0.1331
     50 H12         2.3167   -4.7695    8.6814 H         1 <0>         0.1306
     51 H13         0.1334   -4.4881    7.5816 H         1 <0>         0.1265
     52 H14        -1.1371   -3.5637    5.8183 H         1 <0>         0.0649
     53 H15        -0.3413   -2.7585    4.4448 H         1 <0>         0.0940
     54 H16         0.0684   -6.2062    5.6273 H         1 <0>         0.1281
     55 H17        -1.6859   -5.9073    5.6810 H         1 <0>         0.0662
     56 H18        -0.1893   -7.3707    3.4588 H         1 <0>         0.1365
     57 H19        -1.2058   -8.1314    4.7064 H         1 <0>         0.1401
     58 H20        -2.4087   -7.7918    2.6814 H         1 <0>         0.4340
     59 H21        -1.1699   -5.9406    1.8179 H         1 <0>         0.1354
     60 H22        -2.9222   -5.6282    1.8341 H         1 <0>         0.1390
     61 H23        -2.6961   -4.4340    3.9904 H         1 <0>         0.0667
     62 H24        -1.6505   -3.6993    2.7507 H         1 <0>         0.1232
     63 H25         4.1708    0.5077   -1.9145 H         1 <0>         0.1479
     64 H26         4.6626    0.9473   -4.2842 H         1 <0>         0.1561
     65 H27         4.7774   -0.9285   -5.8807 H         1 <0>         0.1507
     66 H28         3.6612   -4.3768   -1.7427 H         1 <0>         0.1482
     67 H29         4.1626   -6.7900   -5.5998 H         1 <0>         0.4464
     68 H30         3.4502   -6.4723   -1.6844 H         1 <0>         0.4423
     69 H31         3.4452   -7.9831   -2.4192 H         1 <0>         0.4354
     70 H32         3.8579   -8.1671   -4.6870 H         1 <0>         0.4371
     71 H33        -3.0493   -6.8580    3.8780 H         1 <0>         0.4291
@<TRIPOS>BOND
     1    1    6 ar
     2    1    2 ar
     3    1   39 1
     4    2    3 ar
     5    2   40 1
     6    3    4 ar
     7    3   41 1
     8    4    5 ar
     9    4    7 1
    10    5    6 ar
    11    5   42 1
    12    6   43 1
    13    7    8 1
    14    7   26 1
    15    7   44 1
    16    8    9 1
    17    8   45 1
    18    8   46 1
    19    9   10 1
    20   10   11 2
    21   10   12 am
    22   12   13 1
    23   12   47 1
    24   13   18 ar
    25   13   14 ar
    26   14   15 ar
    27   14   48 1
    28   15   16 ar
    29   15   49 1
    30   16   17 ar
    31   16   50 1
    32   17   18 ar
    33   17   51 1
    34   18   19 1
    35   19   20 1
    36   19   52 1
    37   19   53 1
    38   20   25 1
    39   20   21 1
    40   21   22 1
    41   21   54 1
    42   21   55 1
    43   22   23 1
    44   22   56 1
    45   22   57 1
    46   23   24 1
    47   23   58 1
    48   23   71 1
    49   24   25 1
    50   24   59 1
    51   24   60 1
    52   25   61 1
    53   25   62 1
    54   26   27 1
    55   27   32 ar
    56   27   28 ar
    57   28   29 ar
    58   28   63 1
    59   29   30 ar
    60   29   64 1
    61   30   31 ar
    62   30   65 1
    63   31   35 1
    64   31   32 ar
    65   32   33 1
    66   33   34 2
    67   33   66 1
    68   34   35 1
    69   34   36 1
    70   36   37 2
    71   36   38 1
    72   37   67 1
    73   37   70 1
    74   38   68 1
    75   38   69 1
@<TRIPOS>MOLECULE
CHEMBL171514
   53    56     0     0     0
SMALL
USER_CHARGES

@<TRIPOS>ATOM
      1 C1         -0.5511   -0.8563    1.0084 C.3       1 <0>         0.0283
      2 O1          0.0190   -0.0033    0.0137 O.3       1 <0>        -0.3199
      3 C2          0.6204   -0.6069   -1.0463 C.ar      1 <0>         0.0776
      4 C3          0.6547   -1.9911   -1.1279 C.ar      1 <0>        -0.1583
      5 C4          1.2652   -2.6049   -2.2039 C.ar      1 <0>        -0.1559
      6 C5          1.8448   -1.8359   -3.2043 C.ar      1 <0>         0.1791
      7 C6          1.8101   -0.4502   -3.1219 C.ar      1 <0>        -0.1554
      8 C7          1.1942    0.1620   -2.0479 C.ar      1 <0>        -0.1011
      9 N1          2.4641   -2.4570   -4.2948 N.pl3     1 <0>        -0.6332
     10 C8          2.9742   -1.6598   -5.4191 C.3       1 <0>         0.1096
     11 C9          4.4575   -1.9924   -5.6225 C.3       1 <0>         0.1071
     12 N2          4.6098   -3.4536   -5.6636 N.pl3     1 <0>        -0.5592
     13 C10         4.0997   -4.2508   -4.5393 C.3       1 <0>         0.1120
     14 C11         2.6213   -3.9177   -4.3333 C.3       1 <0>         0.1096
     15 C12         5.2229   -4.0686   -6.7433 C.2       1 <0>         0.3395
     16 N3          5.4328   -5.3517   -6.9386 N.2       1 <0>        -0.5915
     17 C13         6.0396   -5.7874   -8.0367 C.2       1 <0>         0.1607
     18 C14         6.4276   -4.8383   -8.9390 C.2       1 <0>        -0.2752
     19 S1          5.8703   -3.3524   -8.1213 S.3       1 <0>         0.1143
     20 C15         6.2841   -7.2323   -8.2713 C.2       1 <0>        -0.0784
     21 C16         7.0114   -7.6578   -9.3610 C.2       1 <0>         0.0210
     22 C17         7.2120   -9.0159   -9.5360 C.2       1 <0>        -0.3230
     23 S2          6.3569   -9.7136   -8.1335 S.3       1 <0>         0.1776
     24 C18         5.7887   -8.1931   -7.3915 C.2       1 <0>        -0.0844
     25 S3          4.8411   -7.9649   -5.9236 S.3       1 <0>         0.1673
     26 C19         4.5647   -9.6507   -5.3132 C.3       1 <0>        -0.2202
     27 C20         7.9399   -9.7050  -10.6010 C.cat     1 <0>         0.6518
     28 N4          8.0248  -11.0412  -10.5978 N.pl3     1 <0>        -0.7729
     29 N5          8.5215   -8.9996  -11.5792 N.pl3     1 <0>        -0.7664
     30 H1         -1.3188   -1.4823    0.5535 H         1 <0>         0.0536
     31 H2          0.2278   -1.4886    1.4346 H         1 <0>         0.0534
     32 H3         -0.9972   -0.2487    1.7957 H         1 <0>         0.1003
     33 H4          0.2041   -2.5891   -0.3495 H         1 <0>         0.1286
     34 H5          1.2921   -3.6828   -2.2671 H         1 <0>         0.1243
     35 H6          2.2607    0.1487   -3.8995 H         1 <0>         0.1299
     36 H7          1.1628    1.2398   -1.9860 H         1 <0>         0.1325
     37 H8          2.4171   -1.9044   -6.3235 H         1 <0>         0.0699
     38 H9          2.8646   -0.5988   -5.1946 H         1 <0>         0.1034
     39 H10         4.8034   -1.5620   -6.5622 H         1 <0>         0.0917
     40 H11         5.0401   -1.5871   -4.7952 H         1 <0>         0.0880
     41 H12         4.2092   -5.3118   -4.7638 H         1 <0>         0.1024
     42 H13         4.6568   -4.0062   -3.6349 H         1 <0>         0.0769
     43 H14         2.2788   -4.3475   -3.3920 H         1 <0>         0.0977
     44 H15         2.0385   -4.3268   -5.1586 H         1 <0>         0.0668
     45 H16         6.9302   -4.9550   -9.8878 H         1 <0>         0.1910
     46 H17         7.4166   -6.9459  -10.0649 H         1 <0>         0.1551
     47 H18         3.9788   -9.6131   -4.3949 H         1 <0>         0.1305
     48 H19         4.0246  -10.2255   -6.0655 H         1 <0>         0.0949
     49 H20         5.5247  -10.1264   -5.1126 H         1 <0>         0.0953
     50 H21         7.6034  -11.5522   -9.8892 H         1 <0>         0.4408
     51 H22         8.4601   -8.0315  -11.5815 H         1 <0>         0.4433
     52 H23         9.0044   -9.4566  -12.2855 H         1 <0>         0.4344
     53 H24         8.5076  -11.4982  -11.3042 H         1 <0>         0.4348
@<TRIPOS>BOND
     1    1    2 1
     2    1   30 1
     3    1   31 1
     4    1   32 1
     5    2    3 1
     6    3    8 ar
     7    3    4 ar
     8    4    5 ar
     9    4   33 1
    10    5    6 ar
    11    5   34 1
    12    6    7 ar
    13    6    9 1
    14    7    8 ar
    15    7   35 1
    16    8   36 1
    17    9   14 1
    18    9   10 1
    19   10   11 1
    20   10   37 1
    21   10   38 1
    22   11   12 1
    23   11   39 1
    24   11   40 1
    25   12   13 1
    26   12   15 1
    27   13   14 1
    28   13   41 1
    29   13   42 1
    30   14   43 1
    31   14   44 1
    32   15   19 1
    33   15   16 2
    34   16   17 1
    35   17   18 2
    36   17   20 1
    37   18   19 1
    38   18   45 1
    39   20   24 2
    40   20   21 1
    41   21   22 2
    42   21   46 1
    43   22   23 1
    44   22   27 1
    45   23   24 1
    46   24   25 1
    47   25   26 1
    48   26   47 1
    49   26   48 1
    50   26   49 1
    51   27   28 2
    52   27   29 1
    53   28   50 1
    54   28   53 1
    55   29   51 1
    56   29   52 1
@<TRIPOS>MOLECULE
CHEMBL64579
   47    50     0     0     0
SMALL
USER_CHARGES

@<TRIPOS>ATOM
      1 C1          0.0120    1.3762    0.2850 C.ar      1 <0>        -0.0788
      2 C2          1.1707    2.0909    0.0617 C.ar      1 <0>        -0.1129
      3 C3          2.3670    1.4189   -0.1939 C.ar      1 <0>        -0.0434
      4 C4          2.3843    0.0206   -0.2218 C.ar      1 <0>         0.0833
      5 C5          1.2103   -0.6872    0.0051 C.ar      1 <0>         0.1177
      6 C6          0.0288   -0.0071    0.2574 C.ar      1 <0>        -0.1808
      7 O1          1.2201   -2.0469   -0.0211 O.3       1 <0>        -0.2960
      8 C7         -0.0416   -2.7072    0.0980 C.3       1 <0>         0.0765
      9 C8         -0.3936   -2.9099    1.5862 C.3       1 <0>        -0.1486
     10 C9         -1.0869   -4.2944    1.6274 C.3       1 <0>        -0.1247
     11 C10        -0.2715   -5.1157    0.5980 C.3       1 <0>        -0.1247
     12 C11         0.0360   -4.1097   -0.5304 C.3       1 <0>        -0.1219
     13 O2          3.5443   -0.6429   -0.4704 O.3       1 <0>        -0.4782
     14 C12         3.6103    2.1817   -0.4345 C.2       1 <0>         0.1537
     15 C13         3.6978    3.3268   -1.1555 C.2       1 <0>        -0.1667
     16 C14         5.1023    3.7352   -1.1349 C.ar      1 <0>        -0.1141
     17 C15         5.8030    4.8079   -1.6856 C.ar      1 <0>         0.0155
     18 C16         7.1737    4.9087   -1.4739 C.ar      1 <0>        -0.1888
     19 C17         7.8400    3.9381   -0.7137 C.ar      1 <0>        -0.0575
     20 C18         7.1580    2.8877   -0.1736 C.ar      1 <0>        -0.1109
     21 C19         5.7844    2.7659   -0.3717 C.ar      1 <0>         0.1559
     22 N1          4.8548    1.8415    0.0438 N.pl3     1 <0>        -0.5672
     23 H1          5.0482    1.0639    0.5903 H         1 <0>         0.4237
     24 C20         7.9287    6.0403   -2.0517 C.cat     1 <0>         0.6051
     25 N2          9.2419    6.1375   -1.8493 N.pl3     1 <0>        -0.7671
     26 N3          7.2960    6.9631   -2.7749 N.pl3     1 <0>        -0.7688
     27 H2         -0.9115    1.8986    0.4866 H         1 <0>         0.1395
     28 H3          1.1520    3.1705    0.0844 H         1 <0>         0.1379
     29 H4         -0.8824   -0.5595    0.4332 H         1 <0>         0.1409
     30 H5         -0.8177   -2.1203   -0.3934 H         1 <0>         0.0793
     31 H6          0.5108   -2.9179    2.1944 H         1 <0>         0.0793
     32 H7         -1.0763   -2.1312    1.9262 H         1 <0>         0.0726
     33 H8         -1.0102   -4.7354    2.6212 H         1 <0>         0.0747
     34 H9         -2.1292   -4.2138    1.3187 H         1 <0>         0.0727
     35 H10         0.6526   -5.4800    1.0466 H         1 <0>         0.0707
     36 H11        -0.8651   -5.9467    0.2168 H         1 <0>         0.0743
     37 H12        -0.7029   -4.2037   -1.3261 H         1 <0>         0.0805
     38 H13         1.0361   -4.2867   -0.9261 H         1 <0>         0.0824
     39 H14         4.0568   -0.8501    0.3231 H         1 <0>         0.3808
     40 H15         2.8860    3.8390   -1.6506 H         1 <0>         0.1642
     41 H16         5.2858    5.5533   -2.2714 H         1 <0>         0.1391
     42 H17         8.9048    4.0225   -0.5541 H         1 <0>         0.1379
     43 H18         7.6850    2.1474    0.4101 H         1 <0>         0.1440
     44 H19         9.7025    5.4656   -1.3228 H         1 <0>         0.4432
     45 H20         6.3399    6.8923   -2.9222 H         1 <0>         0.4427
     46 H21         7.7915    7.7058   -3.1541 H         1 <0>         0.4316
     47 H22         9.7374    6.8802   -2.2285 H         1 <0>         0.4314
@<TRIPOS>BOND
     1    1    6 ar
     2    1    2 ar
     3    1   27 1
     4    2    3 ar
     5    2   28 1
     6    3    4 ar
     7    3   14 1
     8    4    5 ar
     9    4   13 1
    10    5    6 ar
    11    5    7 1
    12    6   29 1
    13    7    8 1
    14    8   12 1
    15    8    9 1
    16    8   30 1
    17    9   10 1
    18    9   31 1
    19    9   32 1
    20   10   11 1
    21   10   33 1
    22   10   34 1
    23   11   12 1
    24   11   35 1
    25   11   36 1
    26   12   37 1
    27   12   38 1
    28   13   39 1
    29   14   22 1
    30   14   15 2
    31   15   16 1
    32   15   40 1
    33   16   21 ar
    34   16   17 ar
    35   17   18 ar
    36   17   41 1
    37   18   19 ar
    38   18   24 1
    39   19   20 ar
    40   19   42 1
    41   20   21 ar
    42   20   43 1
    43   21   22 1
    44   22   23 1
    45   24   25 2
    46   24   26 1
    47   25   44 1
    48   25   47 1
    49   26   45 1
    50   26   46 1
@<TRIPOS>MOLECULE
CHEMBL64579__1
   46    49     0     0     0
SMALL
USER_CHARGES

@<TRIPOS>ATOM
      1 C1          0.0120    1.3762    0.2850 C.ar      1 <0>        -0.2195
      2 C2          1.1707    2.0909    0.0617 C.ar      1 <0>        -0.0579
      3 C3          2.3670    1.4189   -0.1939 C.ar      1 <0>        -0.2386
      4 C4          2.3843    0.0206   -0.2218 C.ar      1 <0>         0.2862
      5 C5          1.2103   -0.6872    0.0051 C.ar      1 <0>         0.0002
      6 C6          0.0288   -0.0071    0.2574 C.ar      1 <0>        -0.1541
      7 O1          1.2201   -2.0469   -0.0211 O.3       1 <0>        -0.2928
      8 C7         -0.0416   -2.7072    0.0980 C.3       1 <0>         0.0782
      9 C8         -0.3936   -2.9099    1.5862 C.3       1 <0>        -0.1462
     10 C9         -1.0869   -4.2944    1.6274 C.3       1 <0>        -0.1232
     11 C10        -0.2715   -5.1157    0.5980 C.3       1 <0>        -0.1220
     12 C11         0.0360   -4.1097   -0.5304 C.3       1 <0>        -0.1217
     13 O2          3.5443   -0.6429   -0.4704 O.3       1 <0>        -0.7008
     14 C12         3.6103    2.1817   -0.4345 C.2       1 <0>         0.2462
     15 C13         3.6978    3.3268   -1.1555 C.2       1 <0>        -0.2417
     16 C14         5.1023    3.7352   -1.1349 C.ar      1 <0>        -0.1012
     17 C15         5.8030    4.8079   -1.6856 C.ar      1 <0>         0.0014
     18 C16         7.1737    4.9087   -1.4739 C.ar      1 <0>        -0.2035
     19 C17         7.8400    3.9381   -0.7137 C.ar      1 <0>        -0.0766
     20 C18         7.1580    2.8877   -0.1736 C.ar      1 <0>        -0.1102
     21 C19         5.7844    2.7659   -0.3717 C.ar      1 <0>         0.1412
     22 N1          4.8548    1.8415    0.0438 N.pl3     1 <0>        -0.5496
     23 H1          5.0482    1.0639    0.5903 H         1 <0>         0.4318
     24 C20         7.9287    6.0403   -2.0517 C.cat     1 <0>         0.6057
     25 N2          9.2419    6.1375   -1.8493 N.pl3     1 <0>        -0.7759
     26 N3          7.2960    6.9631   -2.7749 N.pl3     1 <0>        -0.7764
     27 H2         -0.9115    1.8986    0.4866 H         1 <0>         0.1036
     28 H3          1.1520    3.1705    0.0844 H         1 <0>         0.1019
     29 H4         -0.8824   -0.5595    0.4332 H         1 <0>         0.1073
     30 H5         -0.8177   -2.1203   -0.3934 H         1 <0>         0.0663
     31 H6          0.5108   -2.9179    2.1944 H         1 <0>         0.0765
     32 H7         -1.0763   -2.1312    1.9262 H         1 <0>         0.0666
     33 H8         -1.0102   -4.7354    2.6212 H         1 <0>         0.0670
     34 H9         -2.1292   -4.2138    1.3187 H         1 <0>         0.0665
     35 H10         0.6526   -5.4800    1.0466 H         1 <0>         0.0676
     36 H11        -0.8651   -5.9467    0.2168 H         1 <0>         0.0659
     37 H12        -0.7029   -4.2037   -1.3261 H         1 <0>         0.0707
     38 H13         1.0361   -4.2867   -0.9261 H         1 <0>         0.0795
     39 H14         2.8860    3.8390   -1.6506 H         1 <0>         0.1523
     40 H15         5.2858    5.5533   -2.2714 H         1 <0>         0.1298
     41 H16         8.9048    4.0225   -0.5541 H         1 <0>         0.1279
     42 H17         7.6850    2.1474    0.4101 H         1 <0>         0.1365
     43 H18         9.7025    5.4656   -1.3228 H         1 <0>         0.4416
     44 H19         6.3399    6.8923   -2.9222 H         1 <0>         0.4422
     45 H20         7.7915    7.7058   -3.1541 H         1 <0>         0.4258
     46 H21         9.7374    6.8802   -2.2285 H         1 <0>         0.4255
@<TRIPOS>BOND
     1    1    6 ar
     2    1    2 ar
     3    1   27 1
     4    2    3 ar
     5    2   28 1
     6    3    4 ar
     7    3   14 1
     8    4    5 ar
     9    4   13 1
    10    5    6 ar
    11    5    7 1
    12    6   29 1
    13    7    8 1
    14    8   12 1
    15    8    9 1
    16    8   30 1
    17    9   10 1
    18    9   31 1
    19    9   32 1
    20   10   11 1
    21   10   33 1
    22   10   34 1
    23   11   12 1
    24   11   35 1
    25   11   36 1
    26   12   37 1
    27   12   38 1
    28   14   22 1
    29   14   15 2
    30   15   16 1
    31   15   39 1
    32   16   21 ar
    33   16   17 ar
    34   17   18 ar
    35   17   40 1
    36   18   19 ar
    37   18   24 1
    38   19   20 ar
    39   19   41 1
    40   20   21 ar
    41   20   42 1
    42   21   22 1
    43   22   23 1
    44   24   25 2
    45   24   26 1
    46   25   43 1
    47   25   46 1
    48   26   44 1
    49   26   45 1
@<TRIPOS>MOLECULE
CHEMBL176515
   63    64     0     0     0
SMALL
USER_CHARGES

@<TRIPOS>ATOM
      1 C1         -0.8344    1.9868   -0.2559 C.3       1 <0>        -0.1585
      2 C2         -0.6930    0.4704   -0.1099 C.3       1 <0>         0.1286
      3 H1         -1.6781    0.0069   -0.1621 H         1 <0>         0.1201
      4 C3          0.1726   -0.0628   -1.2223 C.2       1 <0>         0.5233
      5 O1          1.2042   -0.6450   -0.9620 O.2       1 <0>        -0.5234
      6 N1         -0.1996    0.1073   -2.5064 N.am      1 <0>        -0.7199
      7 C4          0.6419   -0.4110   -3.5878 C.3       1 <0>         0.1432
      8 H2          1.6912   -0.3232   -3.3062 H         1 <0>         0.1076
      9 C5          0.3019   -1.8818   -3.8393 C.3       1 <0>        -0.1382
     10 C6          1.2031   -2.4333   -4.9465 C.3       1 <0>        -0.1366
     11 C7          0.9532   -1.6513   -6.2398 C.3       1 <0>         0.1070
     12 N2          1.1373   -0.2189   -5.9694 N.pl3     1 <0>        -0.6334
     13 C8          0.3862    0.3945   -4.8655 C.3       1 <0>         0.3211
     14 O2          0.8238    1.7419   -4.6780 O.3       1 <0>        -0.5455
     15 C9          1.9923    0.5298   -6.7306 C.cat     1 <0>         0.7468
     16 N3          2.7302    1.4819   -6.1622 N.pl3     1 <0>        -0.7776
     17 N4          2.0869    0.3068   -8.0404 N.pl3     1 <0>        -0.7855
     18 N5         -0.0750    0.1597    1.1815 N.am      1 <0>        -0.7144
     19 C10        -0.8380    0.0652    2.2885 C.2       1 <0>         0.5339
     20 O3         -2.0363    0.2375    2.2155 O.2       1 <0>        -0.5137
     21 C11        -0.2023   -0.2544    3.6169 C.3       1 <0>         0.1316
     22 H3          0.2966   -1.2217    3.5576 H         1 <0>         0.1343
     23 C12         0.8222    0.8272    3.9654 C.3       1 <0>         0.0535
     24 O4          0.1923    2.1094    3.9289 O.3       1 <0>        -0.5583
     25 N6         -1.2357   -0.3006    4.6543 N.pl3     1 <0>        -1.0955
     26 S1         -1.1078   -1.3810    5.9028 S.o2      1 <0>         2.6056
     27 O5         -2.2724   -1.1668    6.6883 O.2       1 <0>        -0.9378
     28 O6         -0.8780   -2.6349    5.2750 O.2       1 <0>        -0.9460
     29 C13         0.3686   -0.8614    6.8197 C.3       1 <0>        -0.5835
     30 C14         0.5834   -1.7849    7.9910 C.ar      1 <0>        -0.1004
     31 C15         0.0012   -1.4997    9.2119 C.ar      1 <0>        -0.1033
     32 C16         0.1983   -2.3468   10.2864 C.ar      1 <0>        -0.1156
     33 C17         0.9771   -3.4794   10.1398 C.ar      1 <0>        -0.1058
     34 C18         1.5585   -3.7651    8.9186 C.ar      1 <0>        -0.1169
     35 C19         1.3580   -2.9202    7.8430 C.ar      1 <0>        -0.1049
     36 H4          0.1507    2.4503   -0.2037 H         1 <0>         0.0655
     37 H5         -1.2943    2.2180   -1.2167 H         1 <0>         0.0696
     38 H6         -1.4605    2.3725    0.5487 H         1 <0>         0.0825
     39 H7         -1.0247    0.5730   -2.7146 H         1 <0>         0.4082
     40 H8          0.4600   -2.4527   -2.9244 H         1 <0>         0.0957
     41 H9         -0.7411   -1.9664   -4.1443 H         1 <0>         0.0812
     42 H10         2.2473   -2.3264   -4.6527 H         1 <0>         0.0807
     43 H11         0.9765   -3.4871   -5.1090 H         1 <0>         0.1055
     44 H12         1.6611   -1.9728   -7.0038 H         1 <0>         0.0990
     45 H13        -0.0654   -1.8302   -6.5840 H         1 <0>         0.1017
     46 H14        -0.6786    0.3829   -5.0978 H         1 <0>         0.1114
     47 H15         0.6177    2.3290   -5.4182 H         1 <0>         0.3954
     48 H16         3.2674    2.0728   -6.7128 H         1 <0>         0.4336
     49 H17         1.6044   -0.4323   -8.4426 H         1 <0>         0.4404
     50 H18         2.6384    0.8835   -8.5920 H         1 <0>         0.4393
     51 H19         0.8834    0.0219    1.2399 H         1 <0>         0.4100
     52 H20         1.2174    0.6449    4.9647 H         1 <0>         0.0656
     53 H21         1.6373    0.8022    3.2421 H         1 <0>         0.0674
     54 H22         0.7840    2.8445    4.1403 H         1 <0>         0.3874
     55 H23        -1.9947    0.3017    4.6099 H         1 <0>         0.4317
     56 H24         1.2371   -0.9004    6.1622 H         1 <0>         0.1385
     57 H25         0.2319    0.1579    7.1809 H         1 <0>         0.1460
     58 H26        -0.6073   -0.6148    9.3264 H         1 <0>         0.1313
     59 H27        -0.2560   -2.1236   11.2404 H         1 <0>         0.1316
     60 H28         1.1316   -4.1409   10.9794 H         1 <0>         0.1298
     61 H29         2.1673   -4.6498    8.8042 H         1 <0>         0.1307
     62 H30         1.8092   -3.1454    6.8880 H         1 <0>         0.1295
     63 H31         2.7304    1.5843   -5.1976 H         1 <0>         0.4486
@<TRIPOS>BOND
     1    1    2 1
     2    1   36 1
     3    1   37 1
     4    1   38 1
     5    2    3 1
     6    2    4 1
     7    2   18 1
     8    4    5 2
     9    4    6 am
    10    6    7 1
    11    6   39 1
    12    7    8 1
    13    7   13 1
    14    7    9 1
    15    9   10 1
    16    9   40 1
    17    9   41 1
    18   10   11 1
    19   10   42 1
    20   10   43 1
    21   11   12 1
    22   11   44 1
    23   11   45 1
    24   12   13 1
    25   12   15 1
    26   13   14 1
    27   13   46 1
    28   14   47 1
    29   15   16 2
    30   15   17 1
    31   16   48 1
    32   16   63 1
    33   17   49 1
    34   17   50 1
    35   18   19 am
    36   18   51 1
    37   19   20 2
    38   19   21 1
    39   21   22 1
    40   21   23 1
    41   21   25 1
    42   23   24 1
    43   23   52 1
    44   23   53 1
    45   24   54 1
    46   25   26 1
    47   25   55 1
    48   26   27 2
    49   26   28 2
    50   26   29 1
    51   29   30 1
    52   29   56 1
    53   29   57 1
    54   30   35 ar
    55   30   31 ar
    56   31   32 ar
    57   31   58 1
    58   32   33 ar
    59   32   59 1
    60   33   34 ar
    61   33   60 1
    62   34   35 ar
    63   34   61 1
    64   35   62 1
@<TRIPOS>MOLECULE
CHEMBL176515__1
   63    64     0     0     0
SMALL
USER_CHARGES

@<TRIPOS>ATOM
      1 C1         -0.0187    1.5258    0.0104 C.3       1 <0>        -0.1597
      2 C2          0.0021   -0.0041    0.0020 C.3       1 <0>         0.1284
      3 H1         -1.0205   -0.3814    0.0098 H         1 <0>         0.1211
      4 C3          0.7074   -0.4901   -1.2379 C.2       1 <0>         0.5205
      5 O1          1.7039   -1.1744   -1.1398 O.2       1 <0>        -0.5247
      6 N1          0.2309   -0.1642   -2.4557 N.am      1 <0>        -0.7201
      7 C4          0.9167   -0.6367   -3.6611 C.3       1 <0>         0.1536
      8 H2          1.9917   -0.6599   -3.4825 H         1 <0>         0.1119
      9 C5          0.4262   -2.0439   -4.0094 C.3       1 <0>        -0.1389
     10 C6          1.1657   -2.5514   -5.2494 C.3       1 <0>        -0.1370
     11 C7          0.8635   -1.6272   -6.4332 C.3       1 <0>         0.1066
     12 N2          1.1978   -0.2477   -6.0536 N.pl3     1 <0>        -0.6256
     13 C8          0.6123    0.3097   -4.8266 C.3       1 <0>         0.3131
     14 O2         -0.8024    0.4344   -4.9855 O.3       1 <0>        -0.5401
     15 C9          2.0389    0.5037   -6.8275 C.cat     1 <0>         0.7528
     16 N3          3.0601   -0.0752   -7.4569 N.pl3     1 <0>        -0.7795
     17 N4          1.8367    1.8143   -6.9518 N.pl3     1 <0>        -0.7873
     18 N5          0.7106   -0.4894    1.1889 N.am      1 <0>        -0.7144
     19 C10         0.0512   -0.6335    2.3554 C.2       1 <0>         0.5337
     20 O3         -1.1288   -0.3614    2.4226 O.2       1 <0>        -0.5131
     21 C11         0.7801   -1.1327    3.5763 C.3       1 <0>         0.1317
     22 H3          1.1839   -2.1254    3.3778 H         1 <0>         0.1343
     23 C12         1.9243   -0.1749    3.9144 C.3       1 <0>         0.0536
     24 O4          1.4091    1.1500    4.0604 O.3       1 <0>        -0.5583
     25 N6         -0.1498   -1.2008    4.7064 N.pl3     1 <0>        -1.0955
     26 S1          0.0009   -2.4069    5.8311 S.o2      1 <0>         2.6054
     27 O5         -1.0602   -2.1813    6.7490 O.2       1 <0>        -0.9377
     28 O6          0.0587   -3.6062    5.0711 O.2       1 <0>        -0.9458
     29 C13         1.5979   -2.0986    6.6342 C.3       1 <0>        -0.5835
     30 C14         1.8413   -3.1482    7.6878 C.ar      1 <0>        -0.1004
     31 C15         1.4055   -2.9412    8.9832 C.ar      1 <0>        -0.1033
     32 C16         1.6288   -3.9039    9.9497 C.ar      1 <0>        -0.1156
     33 C17         2.2874   -5.0739    9.6207 C.ar      1 <0>        -0.1058
     34 C18         2.7224   -5.2813    8.3251 C.ar      1 <0>        -0.1169
     35 C19         2.4954   -4.3204    7.3576 C.ar      1 <0>        -0.1049
     36 H4          1.0039    1.9031    0.0027 H         1 <0>         0.0649
     37 H5         -0.5459    1.8868   -0.8726 H         1 <0>         0.0696
     38 H6         -0.5289    1.8773    0.9072 H         1 <0>         0.0836
     39 H7         -0.5660    0.3831   -2.5342 H         1 <0>         0.4139
     40 H8          0.6199   -2.7137   -3.1715 H         1 <0>         0.0884
     41 H9         -0.6446   -2.0156   -4.2114 H         1 <0>         0.0867
     42 H10         2.2385   -2.5565   -5.0565 H         1 <0>         0.0780
     43 H11         0.8328   -3.5626   -5.4831 H         1 <0>         0.1022
     44 H12         1.4642   -1.9255   -7.2923 H         1 <0>         0.0937
     45 H13        -0.1951   -1.6905   -6.6852 H         1 <0>         0.1062
     46 H14         1.0472    1.2887   -4.6256 H         1 <0>         0.0987
     47 H15        -1.0669    1.0205   -5.7077 H         1 <0>         0.3931
     48 H16         3.6565    0.4576   -8.0057 H         1 <0>         0.4407
     49 H17         1.0929    2.2359   -6.4935 H         1 <0>         0.4380
     50 H18         2.4331    2.3472   -7.5007 H         1 <0>         0.4415
     51 H19         1.6544   -0.7070    1.1351 H         1 <0>         0.4099
     52 H20         2.3954   -0.4863    4.8467 H         1 <0>         0.0656
     53 H21         2.6614   -0.1916    3.1116 H         1 <0>         0.0673
     54 H22         2.0806    1.8116    4.2757 H         1 <0>         0.3872
     55 H23        -0.8537   -0.5394    4.7958 H         1 <0>         0.4317
     56 H24         2.3930   -2.1399    5.8897 H         1 <0>         0.1384
     57 H25         1.5865   -1.1128    7.0991 H         1 <0>         0.1459
     58 H26         0.8909   -2.0271    9.2403 H         1 <0>         0.1313
     59 H27         1.2889   -3.7419   10.9620 H         1 <0>         0.1316
     60 H28         2.4625   -5.8258   10.3760 H         1 <0>         0.1298
     61 H29         3.2373   -6.1952    8.0681 H         1 <0>         0.1307
     62 H30         2.8319   -4.4840    6.3445 H         1 <0>         0.1295
     63 H31         3.2074   -1.0297   -7.3663 H         1 <0>         0.4429
@<TRIPOS>BOND
     1    1    2 1
     2    1   36 1
     3    1   37 1
     4    1   38 1
     5    2    3 1
     6    2    4 1
     7    2   18 1
     8    4    5 2
     9    4    6 am
    10    6    7 1
    11    6   39 1
    12    7    8 1
    13    7   13 1
    14    7    9 1
    15    9   10 1
    16    9   40 1
    17    9   41 1
    18   10   11 1
    19   10   42 1
    20   10   43 1
    21   11   12 1
    22   11   44 1
    23   11   45 1
    24   12   13 1
    25   12   15 1
    26   13   14 1
    27   13   46 1
    28   14   47 1
    29   15   16 2
    30   15   17 1
    31   16   48 1
    32   16   63 1
    33   17   49 1
    34   17   50 1
    35   18   19 am
    36   18   51 1
    37   19   20 2
    38   19   21 1
    39   21   22 1
    40   21   23 1
    41   21   25 1
    42   23   24 1
    43   23   52 1
    44   23   53 1
    45   24   54 1
    46   25   26 1
    47   25   55 1
    48   26   27 2
    49   26   28 2
    50   26   29 1
    51   29   30 1
    52   29   56 1
    53   29   57 1
    54   30   35 ar
    55   30   31 ar
    56   31   32 ar
    57   31   58 1
    58   32   33 ar
    59   32   59 1
    60   33   34 ar
    61   33   60 1
    62   34   35 ar
    63   34   61 1
    64   35   62 1
@<TRIPOS>MOLECULE
CHEMBL239331
   65    67     0     0     0
SMALL
USER_CHARGES

@<TRIPOS>ATOM
      1 C1          0.0409   -0.5168    5.4451 C.ar      1 <0>        -0.1022
      2 C2          0.2452   -0.8159    4.1110 C.ar      1 <0>        -0.1206
      3 C3          1.3286   -1.5869    3.7336 C.ar      1 <0>        -0.0922
      4 C4          2.2082   -2.0584    4.6901 C.ar      1 <0>        -0.1064
      5 C5          2.0044   -1.7585    6.0241 C.ar      1 <0>        -0.0932
      6 C6          0.9202   -0.9887    6.4017 C.ar      1 <0>        -0.1218
      7 C7          3.3888   -2.8998    4.2788 C.3       1 <0>         0.1256
      8 O1          4.5079   -2.0521    4.0118 O.3       1 <0>        -0.3491
      9 C8          5.6512   -2.6515    3.6296 C.2       1 <0>         0.6478
     10 O2          5.6976   -3.8613    3.5254 O.2       1 <0>        -0.5592
     11 N1          6.7443   -1.9097    3.3624 N.am      1 <0>        -0.6940
     12 C9          8.0164   -2.5658    3.0499 C.3       1 <0>        -0.4260
     13 C10         9.1435   -1.8940    3.8367 C.3       1 <0>        -0.1231
     14 C11        10.4720   -2.5792    3.5104 C.3       1 <0>        -0.1620
     15 C12        11.5992   -1.9073    4.2971 C.3       1 <0>         0.0996
     16 N2         12.8712   -2.5634    3.9847 N.pl3     1 <0>        -0.6946
     17 C13        14.0271   -2.1304    4.5743 C.cat     1 <0>         0.7430
     18 N3         15.1836   -2.7269    4.2902 N.pl3     1 <0>        -0.7937
     19 N4         13.9960   -1.1123    5.4324 N.pl3     1 <0>        -0.7931
     20 P1          8.3520   -2.4213    1.2639 P.3       1 <0>         2.2969
     21 O3          8.6335   -1.0078    0.9277 O.2       1 <0>        -0.9690
     22 O4          9.6267   -3.3278    0.8823 O.3       1 <0>        -0.6205
     23 C14        10.0022   -3.2331   -0.4203 C.ar      1 <0>         0.0701
     24 C15         9.3928   -4.0297   -1.3788 C.ar      1 <0>        -0.1402
     25 C16         9.7760   -3.9312   -2.7024 C.ar      1 <0>        -0.0967
     26 C17        10.7664   -3.0400   -3.0721 C.ar      1 <0>        -0.1083
     27 C18        11.3756   -2.2453   -2.1186 C.ar      1 <0>        -0.1014
     28 C19        10.9917   -2.3356   -0.7947 C.ar      1 <0>        -0.1120
     29 O5          7.0676   -2.9248    0.4340 O.3       1 <0>        -0.6331
     30 C20         6.2749   -1.9194   -0.0216 C.ar      1 <0>         0.0994
     31 C21         5.1226   -1.5753    0.6701 C.ar      1 <0>        -0.1381
     32 C22         4.3188   -0.5525    0.2053 C.ar      1 <0>        -0.0971
     33 C23         4.6615    0.1278   -0.9486 C.ar      1 <0>        -0.1118
     34 C24         5.8092   -0.2135   -1.6401 C.ar      1 <0>        -0.0934
     35 C25         6.6197   -1.2315   -1.1760 C.ar      1 <0>        -0.1108
     36 H1         -0.8031    0.0894    5.7395 H         1 <0>         0.1280
     37 H2         -0.4420   -0.4475    3.3637 H         1 <0>         0.1292
     38 H3          1.4878   -1.8212    2.6914 H         1 <0>         0.1256
     39 H4          2.6914   -2.1272    6.7715 H         1 <0>         0.1230
     40 H5          0.7608   -0.7547    7.4439 H         1 <0>         0.1278
     41 H6          3.6403   -3.5910    5.0832 H         1 <0>         0.0810
     42 H7          3.1377   -3.4637    3.3804 H         1 <0>         0.0830
     43 H8          6.6888   -0.9414    3.3770 H         1 <0>         0.4222
     44 H9          7.9591   -3.6190    3.3248 H         1 <0>         0.1335
     45 H10         9.2008   -0.8408    3.5618 H         1 <0>         0.1048
     46 H11         8.9428   -1.9804    4.9046 H         1 <0>         0.0955
     47 H12        10.4147   -3.6324    3.7852 H         1 <0>         0.0941
     48 H13        10.6727   -2.4928    2.4425 H         1 <0>         0.0955
     49 H14        11.6564   -0.8541    4.0223 H         1 <0>         0.1019
     50 H15        11.3985   -1.9937    5.3650 H         1 <0>         0.0970
     51 H16        12.8938   -3.3049    3.3597 H         1 <0>         0.4379
     52 H17        15.2062   -3.4684    3.6652 H         1 <0>         0.4416
     53 H18        13.1538   -0.6778    5.6393 H         1 <0>         0.4400
     54 H19        14.8157   -0.8052    5.8505 H         1 <0>         0.4413
     55 H20         8.6197   -4.7265   -1.0904 H         1 <0>         0.1374
     56 H21         9.3019   -4.5512   -3.4489 H         1 <0>         0.1391
     57 H22        11.0648   -2.9648   -4.1073 H         1 <0>         0.1362
     58 H23        12.1492   -1.5502   -2.4099 H         1 <0>         0.1376
     59 H24        11.4648   -1.7115   -0.0510 H         1 <0>         0.1344
     60 H25         4.8541   -2.1068    1.5711 H         1 <0>         0.1182
     61 H26         3.4216   -0.2843    0.7434 H         1 <0>         0.1337
     62 H27         4.0316    0.9268   -1.3107 H         1 <0>         0.1339
     63 H28         6.0746    0.3191   -2.5414 H         1 <0>         0.1366
     64 H29         7.5184   -1.4947   -1.7140 H         1 <0>         0.1297
     65 H30        16.0032   -2.4199    4.7082 H         1 <0>         0.4416
@<TRIPOS>BOND
     1    1    6 ar
     2    1    2 ar
     3    1   36 1
     4    2    3 ar
     5    2   37 1
     6    3    4 ar
     7    3   38 1
     8    4    5 ar
     9    4    7 1
    10    5    6 ar
    11    5   39 1
    12    6   40 1
    13    7    8 1
    14    7   41 1
    15    7   42 1
    16    8    9 1
    17    9   10 2
    18    9   11 am
    19   11   12 1
    20   11   43 1
    21   12   13 1
    22   12   20 1
    23   12   44 1
    24   13   14 1
    25   13   45 1
    26   13   46 1
    27   14   15 1
    28   14   47 1
    29   14   48 1
    30   15   16 1
    31   15   49 1
    32   15   50 1
    33   16   17 1
    34   16   51 1
    35   17   18 2
    36   17   19 1
    37   18   52 1
    38   18   65 1
    39   19   53 1
    40   19   54 1
    41   20   21 2
    42   20   22 1
    43   20   29 1
    44   22   23 1
    45   23   28 ar
    46   23   24 ar
    47   24   25 ar
    48   24   55 1
    49   25   26 ar
    50   25   56 1
    51   26   27 ar
    52   26   57 1
    53   27   28 ar
    54   27   58 1
    55   28   59 1
    56   29   30 1
    57   30   35 ar
    58   30   31 ar
    59   31   32 ar
    60   31   60 1
    61   32   33 ar
    62   32   61 1
    63   33   34 ar
    64   33   62 1
    65   34   35 ar
    66   34   63 1
    67   35   64 1
@<TRIPOS>MOLECULE
CHEMBL239331__1
   65    67     0     0     0
SMALL
USER_CHARGES

@<TRIPOS>ATOM
      1 C1          2.7530    0.6498   -3.4943 C.ar      1 <0>        -0.1020
      2 C2          3.9215    1.2858   -3.1188 C.ar      1 <0>        -0.1217
      3 C3          4.9301    0.5703   -2.5010 C.ar      1 <0>        -0.0929
      4 C4          4.7700   -0.7812   -2.2583 C.ar      1 <0>        -0.1063
      5 C5          3.6011   -1.4170   -2.6330 C.ar      1 <0>        -0.0925
      6 C6          2.5931   -0.7017   -3.2520 C.ar      1 <0>        -0.1206
      7 C7          5.8699   -1.5614   -1.5857 C.3       1 <0>         0.1253
      8 O1          5.6802   -1.5283   -0.1698 O.3       1 <0>        -0.3489
      9 C8          6.5841   -2.1828    0.5835 C.2       1 <0>         0.6480
     10 O2          7.5087   -2.7661    0.0531 O.2       1 <0>        -0.5593
     11 N1          6.4633   -2.1909    1.9258 N.am      1 <0>        -0.6941
     12 C9          7.3820   -2.9914    2.7391 C.3       1 <0>        -0.4269
     13 C10         7.8877   -2.1513    3.9135 C.3       1 <0>        -0.1222
     14 C11         8.8471   -2.9874    4.7629 C.3       1 <0>        -0.1613
     15 C12         9.3528   -2.1472    5.9373 C.3       1 <0>         0.0996
     16 N2         10.2714   -2.9478    6.7506 N.pl3     1 <0>        -0.6946
     17 C13        10.8530   -2.4027    7.8623 C.cat     1 <0>         0.7430
     18 N3         11.6882   -3.1305    8.6017 N.pl3     1 <0>        -0.7938
     19 N4         10.5840   -1.1441    8.2053 N.pl3     1 <0>        -0.7931
     20 P1          6.5088   -4.4603    3.3742 P.3       1 <0>         2.2942
     21 O3          5.5078   -4.0422    4.3810 O.2       1 <0>        -0.9683
     22 O4          5.7661   -5.2105    2.1586 O.3       1 <0>        -0.6346
     23 C14         4.4357   -4.9458    2.0759 C.ar      1 <0>         0.0992
     24 C15         3.5372   -5.6475    2.8664 C.ar      1 <0>        -0.1119
     25 C16         2.1854   -5.3763    2.7809 C.ar      1 <0>        -0.0933
     26 C17         1.7275   -4.4067    1.9079 C.ar      1 <0>        -0.1122
     27 C18         2.6209   -3.7063    1.1186 C.ar      1 <0>        -0.0952
     28 C19         3.9743   -3.9695    1.2049 C.ar      1 <0>        -0.1410
     29 O5          7.5691   -5.4621    4.0555 O.3       1 <0>        -0.6200
     30 C20         7.0044   -6.5540    4.6349 C.ar      1 <0>         0.0661
     31 C21         6.5415   -6.4864    5.9410 C.ar      1 <0>        -0.1143
     32 C22         5.9675   -7.5976    6.5275 C.ar      1 <0>        -0.1021
     33 C23         5.8545   -8.7767    5.8142 C.ar      1 <0>        -0.1076
     34 C24         6.3155   -8.8468    4.5125 C.ar      1 <0>        -0.0996
     35 C25         6.8847   -7.7366    3.9194 C.ar      1 <0>        -0.1322
     36 H1          1.9632    1.2098   -3.9729 H         1 <0>         0.1280
     37 H2          4.0466    2.3416   -3.3084 H         1 <0>         0.1279
     38 H3          5.8433    1.0670   -2.2083 H         1 <0>         0.1233
     39 H4          3.4762   -2.4729   -2.4437 H         1 <0>         0.1256
     40 H5          1.6800   -1.1985   -3.5451 H         1 <0>         0.1291
     41 H6          5.8460   -2.5949   -1.9314 H         1 <0>         0.0830
     42 H7          6.8341   -1.1176   -1.8336 H         1 <0>         0.0814
     43 H8          5.7681   -1.6667    2.3534 H         1 <0>         0.4223
     44 H9          8.2273   -3.3074    2.1278 H         1 <0>         0.1350
     45 H10         8.4098   -1.2730    3.5338 H         1 <0>         0.0955
     46 H11         7.0423   -1.8354    4.5249 H         1 <0>         0.1048
     47 H12         8.3250   -3.8656    5.1426 H         1 <0>         0.0945
     48 H13         9.6924   -3.3033    4.1516 H         1 <0>         0.0941
     49 H14         9.8749   -1.2690    5.5576 H         1 <0>         0.0970
     50 H15         8.5075   -1.8313    6.5487 H         1 <0>         0.1019
     51 H16        10.4673   -3.8643    6.5008 H         1 <0>         0.4379
     52 H17        11.8841   -4.0471    8.3519 H         1 <0>         0.4416
     53 H18         9.9758   -0.6140    7.6668 H         1 <0>         0.4400
     54 H19        10.9964   -0.7575    8.9936 H         1 <0>         0.4413
     55 H20         3.8943   -6.4055    3.5479 H         1 <0>         0.1290
     56 H21         1.4856   -5.9223    3.3961 H         1 <0>         0.1363
     57 H22         0.6703   -4.1964    1.8422 H         1 <0>         0.1336
     58 H23         2.2608   -2.9497    0.4373 H         1 <0>         0.1341
     59 H24         4.6722   -3.4190    0.5914 H         1 <0>         0.1215
     60 H25         6.6302   -5.5659    6.4988 H         1 <0>         0.1374
     61 H26         5.6070   -7.5455    7.5442 H         1 <0>         0.1377
     62 H27         5.4057   -9.6444    6.2746 H         1 <0>         0.1359
     63 H28         6.2264   -9.7690    3.9575 H         1 <0>         0.1388
     64 H29         7.2406   -7.7905    2.9011 H         1 <0>         0.1366
     65 H30        12.1006   -2.7440    9.3900 H         1 <0>         0.4416
@<TRIPOS>BOND
     1    1    6 ar
     2    1    2 ar
     3    1   36 1
     4    2    3 ar
     5    2   37 1
     6    3    4 ar
     7    3   38 1
     8    4    5 ar
     9    4    7 1
    10    5    6 ar
    11    5   39 1
    12    6   40 1
    13    7    8 1
    14    7   41 1
    15    7   42 1
    16    8    9 1
    17    9   10 2
    18    9   11 am
    19   11   12 1
    20   11   43 1
    21   12   13 1
    22   12   20 1
    23   12   44 1
    24   13   14 1
    25   13   45 1
    26   13   46 1
    27   14   15 1
    28   14   47 1
    29   14   48 1
    30   15   16 1
    31   15   49 1
    32   15   50 1
    33   16   17 1
    34   16   51 1
    35   17   18 2
    36   17   19 1
    37   18   52 1
    38   18   65 1
    39   19   53 1
    40   19   54 1
    41   20   21 2
    42   20   22 1
    43   20   29 1
    44   22   23 1
    45   23   28 ar
    46   23   24 ar
    47   24   25 ar
    48   24   55 1
    49   25   26 ar
    50   25   56 1
    51   26   27 ar
    52   26   57 1
    53   27   28 ar
    54   27   58 1
    55   28   59 1
    56   29   30 1
    57   30   35 ar
    58   30   31 ar
    59   31   32 ar
    60   31   60 1
    61   32   33 ar
    62   32   61 1
    63   33   34 ar
    64   33   62 1
    65   34   35 ar
    66   34   63 1
    67   35   64 1
@<TRIPOS>MOLECULE
CHEMBL416674
   49    52     0     0     0
SMALL
USER_CHARGES

@<TRIPOS>ATOM
      1 C1         -0.4005    1.5542   -0.0682 C.3       1 <0>        -0.1475
      2 C2         -0.1569    0.0449   -0.0104 C.3       1 <0>        -0.0923
      3 H1         -1.1055   -0.4887   -0.0701 H         1 <0>         0.0894
      4 C3          0.7657   -0.3863   -1.1691 C.3       1 <0>        -0.1207
      5 C4          2.1810   -0.4070   -0.5401 C.3       1 <0>        -0.1235
      6 C5          1.9153   -0.9625    0.8811 C.3       1 <0>        -0.1484
      7 C6          0.5729   -0.3217    1.2937 C.3       1 <0>         0.0781
      8 H2          0.7535    0.5757    1.8855 H         1 <0>         0.0812
      9 O1         -0.2059   -1.2554    2.0447 O.3       1 <0>        -0.2906
     10 C7          0.0298   -1.3209    3.3825 C.ar      1 <0>         0.1120
     11 C8          0.9387   -0.4551    3.9692 C.ar      1 <0>        -0.1677
     12 C9          1.1837   -0.5166    5.3303 C.ar      1 <0>        -0.0830
     13 C10         0.5254   -1.4396    6.1150 C.ar      1 <0>        -0.1181
     14 C11        -0.3934   -2.3185    5.5375 C.ar      1 <0>        -0.0564
     15 C12        -0.6456   -2.2528    4.1627 C.ar      1 <0>         0.1392
     16 O2         -1.5416   -3.0995    3.5919 O.3       1 <0>        -0.4594
     17 C13        -1.0998   -3.3093    6.3749 C.2       1 <0>         0.3920
     18 N1         -1.9751   -4.1824    5.9349 N.2       1 <0>        -0.4605
     19 C14        -2.4263   -4.9335    6.9592 C.ar      1 <0>         0.1385
     20 C15        -3.3485   -5.9848    7.0420 C.ar      1 <0>        -0.0903
     21 C16        -3.6126   -6.5691    8.2463 C.ar      1 <0>         0.1392
     22 C17        -2.9656   -6.1253    9.4098 C.ar      1 <0>        -0.1975
     23 C18        -2.0449   -5.0801    9.3425 C.ar      1 <0>         0.0009
     24 C19        -1.7743   -4.4845    8.1242 C.ar      1 <0>         0.0240
     25 N2         -0.9355   -3.4585    7.7246 N.pl3     1 <0>        -0.5854
     26 C20        -3.2603   -6.7654   10.7066 C.cat     1 <0>         0.6150
     27 N3         -2.2717   -7.2903   11.4308 N.pl3     1 <0>        -0.7534
     28 N4         -4.5151   -6.8186   11.1538 N.pl3     1 <0>        -0.7463
     29 F1         -4.5037   -7.5820    8.3193 F         1 <0>        -0.1215
     30 H3          0.5540    2.0784   -0.0204 H         1 <0>         0.0587
     31 H4         -0.9066    1.8052   -1.0004 H         1 <0>         0.0661
     32 H5         -1.0225    1.8544    0.7751 H         1 <0>         0.0569
     33 H6          0.4920   -1.3793   -1.5255 H         1 <0>         0.0717
     34 H7          0.7204    0.3379   -1.9825 H         1 <0>         0.0753
     35 H8          2.8416   -1.0713   -1.0973 H         1 <0>         0.0745
     36 H9          2.5963    0.5995   -0.4901 H         1 <0>         0.0719
     37 H10         1.8273   -2.0487    0.8558 H         1 <0>         0.0801
     38 H11         2.7089   -0.6590    1.5638 H         1 <0>         0.0719
     39 H12         1.4586    0.2708    3.3617 H         1 <0>         0.1439
     40 H13         1.8943    0.1614    5.7795 H         1 <0>         0.1411
     41 H14         0.7206   -1.4830    7.1764 H         1 <0>         0.1278
     42 H15        -1.1560   -3.9312    3.2843 H         1 <0>         0.3936
     43 H16        -3.8511   -6.3328    6.1518 H         1 <0>         0.1667
     44 H17        -1.5461   -4.7375   10.2371 H         1 <0>         0.1525
     45 H18        -2.4539   -7.6453   12.3149 H         1 <0>         0.4335
     46 H19        -5.2343   -6.4366   10.6269 H         1 <0>         0.4495
     47 H20        -4.7088   -7.2392   12.0061 H         1 <0>         0.4341
     48 H21        -1.3703   -7.3173   11.0736 H         1 <0>         0.4484
     49 H22        -0.3447   -2.9416    8.2944 H         1 <0>         0.4348
@<TRIPOS>BOND
     1    1    2 1
     2    1   30 1
     3    1   31 1
     4    1   32 1
     5    2    3 1
     6    2    7 1
     7    2    4 1
     8    4    5 1
     9    4   33 1
    10    4   34 1
    11    5    6 1
    12    5   35 1
    13    5   36 1
    14    6    7 1
    15    6   37 1
    16    6   38 1
    17    7    8 1
    18    7    9 1
    19    9   10 1
    20   10   15 ar
    21   10   11 ar
    22   11   12 ar
    23   11   39 1
    24   12   13 ar
    25   12   40 1
    26   13   14 ar
    27   13   41 1
    28   14   15 ar
    29   14   17 1
    30   15   16 1
    31   16   42 1
    32   17   25 1
    33   17   18 2
    34   18   19 1
    35   19   24 ar
    36   19   20 ar
    37   20   21 ar
    38   20   43 1
    39   21   22 ar
    40   21   29 1
    41   22   23 ar
    42   22   26 1
    43   23   24 ar
    44   23   44 1
    45   24   25 1
    46   25   49 1
    47   26   27 2
    48   26   28 1
    49   27   45 1
    50   27   48 1
    51   28   46 1
    52   28   47 1
@<TRIPOS>MOLECULE
CHEMBL416674__1
   48    51     0     0     0
SMALL
USER_CHARGES

@<TRIPOS>ATOM
      1 C1          1.0405    1.6510    1.2232 C.3       1 <0>        -0.1424
      2 C2          1.1982    0.1374    1.0643 C.3       1 <0>        -0.0952
      3 H1          0.2239   -0.3246    0.9051 H         1 <0>         0.0865
      4 C3          2.1315   -0.1747   -0.1238 C.3       1 <0>        -0.1178
      5 C4          3.5230   -0.3706    0.5276 C.3       1 <0>        -0.1222
      6 C5          3.1826   -1.1099    1.8454 C.3       1 <0>        -0.1469
      7 C6          1.8654   -0.4574    2.3168 C.3       1 <0>         0.0825
      8 H2          2.0768    0.3322    3.0379 H         1 <0>         0.0692
      9 O1          1.0130   -1.4423    2.9044 O.3       1 <0>        -0.2900
     10 C7          1.1825   -1.6939    4.2302 C.ar      1 <0>         0.0160
     11 C8          2.2221   -1.0933    4.9221 C.ar      1 <0>        -0.1584
     12 C9          2.4001   -1.3445    6.2715 C.ar      1 <0>        -0.2114
     13 C10         1.5447   -2.1948    6.9400 C.ar      1 <0>        -0.0695
     14 C11         0.4928   -2.8069    6.2556 C.ar      1 <0>        -0.2347
     15 C12         0.3094   -2.5491    4.8928 C.ar      1 <0>         0.3093
     16 O2         -0.7141   -3.1357    4.2189 O.3       1 <0>        -0.6327
     17 C13        -0.4255   -3.7189    6.9685 C.2       1 <0>         0.4235
     18 N1         -0.3465   -4.0344    8.2995 N.pl3     1 <0>        -0.6038
     19 H3          0.3117   -3.7040    8.9307 H         1 <0>         0.4265
     20 C14        -1.3773   -4.9086    8.5752 C.ar      1 <0>         0.0950
     21 C15        -1.7986   -5.5608    9.7275 C.ar      1 <0>        -0.1251
     22 C16        -2.8936   -6.3957    9.6858 C.ar      1 <0>         0.1191
     23 C17        -3.5878   -6.5920    8.4825 C.ar      1 <0>        -0.2130
     24 C18        -3.1744   -5.9444    7.3231 C.ar      1 <0>         0.0096
     25 C19        -2.0667   -5.0978    7.3622 C.ar      1 <0>         0.0624
     26 N2         -1.4410   -4.3428    6.4240 N.2       1 <0>        -0.4557
     27 C20        -4.7605   -7.4892    8.4467 C.cat     1 <0>         0.6214
     28 N3         -5.7862   -7.2784    9.2710 N.pl3     1 <0>        -0.7554
     29 N4         -4.7930   -8.5095    7.5902 N.pl3     1 <0>        -0.7551
     30 F1         -3.3003   -7.0282   10.8082 F         1 <0>        -0.1328
     31 H4          2.0205    2.1051    1.3693 H         1 <0>         0.0544
     32 H5          0.5786    2.0643    0.3266 H         1 <0>         0.0580
     33 H6          0.4099    1.8618    2.0869 H         1 <0>         0.0562
     34 H7          1.8145   -1.0875   -0.6283 H         1 <0>         0.0681
     35 H8          2.1518    0.6613   -0.8228 H         1 <0>         0.0674
     36 H9          4.1630   -0.9849   -0.1058 H         1 <0>         0.0670
     37 H10         3.9916    0.5916    0.7344 H         1 <0>         0.0662
     38 H11         3.0354   -2.1737    1.6589 H         1 <0>         0.0776
     39 H12         3.9700   -0.9564    2.5833 H         1 <0>         0.0669
     40 H13         2.8968   -0.4264    4.4059 H         1 <0>         0.1096
     41 H14         3.2131   -0.8727    6.8034 H         1 <0>         0.1051
     42 H15         1.6885   -2.3874    7.9929 H         1 <0>         0.0923
     43 H16        -1.2671   -5.4135   10.6560 H         1 <0>         0.1474
     44 H17        -3.7088   -6.0961    6.3969 H         1 <0>         0.1517
     45 H18        -5.7968   -6.4938    9.8412 H         1 <0>         0.4475
     46 H19        -4.0464   -8.6630    6.9902 H         1 <0>         0.4493
     47 H20        -5.5631   -9.0988    7.5667 H         1 <0>         0.4282
     48 H21        -6.5221   -7.9096    9.3008 H         1 <0>         0.4281
@<TRIPOS>BOND
     1    1    2 1
     2    1   31 1
     3    1   32 1
     4    1   33 1
     5    2    3 1
     6    2    7 1
     7    2    4 1
     8    4    5 1
     9    4   34 1
    10    4   35 1
    11    5    6 1
    12    5   36 1
    13    5   37 1
    14    6    7 1
    15    6   38 1
    16    6   39 1
    17    7    8 1
    18    7    9 1
    19    9   10 1
    20   10   15 ar
    21   10   11 ar
    22   11   12 ar
    23   11   40 1
    24   12   13 ar
    25   12   41 1
    26   13   14 ar
    27   13   42 1
    28   14   15 ar
    29   14   17 1
    30   15   16 1
    31   17   26 2
    32   17   18 1
    33   18   19 1
    34   18   20 1
    35   20   25 ar
    36   20   21 ar
    37   21   22 ar
    38   21   43 1
    39   22   23 ar
    40   22   30 1
    41   23   24 ar
    42   23   27 1
    43   24   25 ar
    44   24   44 1
    45   25   26 1
    46   27   28 2
    47   27   29 1
    48   28   45 1
    49   28   48 1
    50   29   46 1
    51   29   47 1
@<TRIPOS>MOLECULE
CHEMBL416674__2
   49    52     0     0     0
SMALL
USER_CHARGES

@<TRIPOS>ATOM
      1 C1          1.0405    1.6510    1.2232 C.3       1 <0>        -0.1475
      2 C2          1.1982    0.1374    1.0643 C.3       1 <0>        -0.0923
      3 H1          0.2239   -0.3246    0.9051 H         1 <0>         0.0888
      4 C3          2.1315   -0.1747   -0.1238 C.3       1 <0>        -0.1207
      5 C4          3.5230   -0.3706    0.5276 C.3       1 <0>        -0.1238
      6 C5          3.1826   -1.1099    1.8454 C.3       1 <0>        -0.1489
      7 C6          1.8654   -0.4574    2.3168 C.3       1 <0>         0.0798
      8 H2          2.0768    0.3322    3.0379 H         1 <0>         0.0806
      9 O1          1.0130   -1.4423    2.9044 O.3       1 <0>        -0.2921
     10 C7          1.1825   -1.6939    4.2302 C.ar      1 <0>         0.1117
     11 C8          2.2221   -1.0933    4.9221 C.ar      1 <0>        -0.1691
     12 C9          2.4001   -1.3445    6.2715 C.ar      1 <0>        -0.0818
     13 C10         1.5447   -2.1948    6.9400 C.ar      1 <0>        -0.1200
     14 C11         0.4928   -2.8069    6.2556 C.ar      1 <0>        -0.0499
     15 C12         0.3094   -2.5491    4.8928 C.ar      1 <0>         0.1345
     16 O2         -0.7141   -3.1357    4.2189 O.3       1 <0>        -0.4605
     17 C13        -0.4255   -3.7189    6.9685 C.2       1 <0>         0.3700
     18 N1         -0.3465   -4.0344    8.2995 N.pl3     1 <0>        -0.5844
     19 H3          0.3117   -3.7040    8.9307 H         1 <0>         0.4364
     20 C14        -1.3773   -4.9086    8.5752 C.ar      1 <0>         0.1174
     21 C15        -1.7986   -5.5608    9.7275 C.ar      1 <0>        -0.1262
     22 C16        -2.8936   -6.3957    9.6858 C.ar      1 <0>         0.1524
     23 C17        -3.5878   -6.5920    8.4825 C.ar      1 <0>        -0.2050
     24 C18        -3.1744   -5.9444    7.3231 C.ar      1 <0>         0.0376
     25 C19        -2.0667   -5.0978    7.3622 C.ar      1 <0>         0.0422
     26 N2         -1.4410   -4.3428    6.4240 N.2       1 <0>        -0.4450
     27 C20        -4.7605   -7.4892    8.4467 C.cat     1 <0>         0.6147
     28 N3         -5.7862   -7.2784    9.2710 N.pl3     1 <0>        -0.7481
     29 N4         -4.7930   -8.5095    7.5902 N.pl3     1 <0>        -0.7501
     30 F1         -3.3003   -7.0282   10.8082 F         1 <0>        -0.1188
     31 H4          2.0205    2.1051    1.3693 H         1 <0>         0.0589
     32 H5          0.5786    2.0643    0.3266 H         1 <0>         0.0658
     33 H6          0.4099    1.8618    2.0869 H         1 <0>         0.0568
     34 H7          1.8145   -1.0875   -0.6283 H         1 <0>         0.0713
     35 H8          2.1518    0.6613   -0.8228 H         1 <0>         0.0752
     36 H9          4.1630   -0.9849   -0.1058 H         1 <0>         0.0745
     37 H10         3.9916    0.5916    0.7344 H         1 <0>         0.0719
     38 H11         3.0354   -2.1737    1.6589 H         1 <0>         0.0805
     39 H12         3.9700   -0.9564    2.5833 H         1 <0>         0.0723
     40 H13         2.8968   -0.4264    4.4059 H         1 <0>         0.1430
     41 H14         3.2131   -0.8727    6.8034 H         1 <0>         0.1411
     42 H15         1.6885   -2.3874    7.9929 H         1 <0>         0.1282
     43 H16        -0.4884   -3.9906    3.8274 H         1 <0>         0.3914
     44 H17        -1.2671   -5.4135   10.6560 H         1 <0>         0.1595
     45 H18        -3.7088   -6.0961    6.3969 H         1 <0>         0.1616
     46 H19        -5.7968   -6.4938    9.8412 H         1 <0>         0.4489
     47 H20        -4.0464   -8.6630    6.9902 H         1 <0>         0.4491
     48 H21        -5.5631   -9.0988    7.5667 H         1 <0>         0.4340
     49 H22        -6.5221   -7.9096    9.3008 H         1 <0>         0.4342
@<TRIPOS>BOND
     1    1    2 1
     2    1   31 1
     3    1   32 1
     4    1   33 1
     5    2    3 1
     6    2    7 1
     7    2    4 1
     8    4    5 1
     9    4   34 1
    10    4   35 1
    11    5    6 1
    12    5   36 1
    13    5   37 1
    14    6    7 1
    15    6   38 1
    16    6   39 1
    17    7    8 1
    18    7    9 1
    19    9   10 1
    20   10   15 ar
    21   10   11 ar
    22   11   12 ar
    23   11   40 1
    24   12   13 ar
    25   12   41 1
    26   13   14 ar
    27   13   42 1
    28   14   15 ar
    29   14   17 1
    30   15   16 1
    31   16   43 1
    32   17   26 2
    33   17   18 1
    34   18   19 1
    35   18   20 1
    36   20   25 ar
    37   20   21 ar
    38   21   22 ar
    39   21   44 1
    40   22   23 ar
    41   22   30 1
    42   23   24 ar
    43   23   27 1
    44   24   25 ar
    45   24   45 1
    46   25   26 1
    47   27   28 2
    48   27   29 1
    49   28   46 1
    50   28   49 1
    51   29   47 1
    52   29   48 1
@<TRIPOS>MOLECULE
CHEMBL64097
   36    37     0     0     0
SMALL
USER_CHARGES

@<TRIPOS>ATOM
      1 C1         -0.0548    1.5027    0.0099 C.3       1 <0>        -0.1194
      2 C2         -0.0227   -0.0039    0.0018 C.ar      1 <0>        -0.0926
      3 C3         -0.0111   -0.6833   -1.1973 C.ar      1 <0>        -0.0552
      4 C4          0.0191   -2.0799   -1.2065 C.ar      1 <0>        -0.1722
      5 C5          0.0374   -2.7805    0.0074 C.ar      1 <0>         0.2042
      6 C6          0.0253   -2.0806    1.2050 C.ar      1 <0>        -0.1406
      7 C7          0.0007   -0.6993    1.1994 C.ar      1 <0>        -0.0334
      8 I1          0.0524   -3.1192    3.0242 I         1 <0>        -0.0015
      9 O1          0.0662   -4.1369    0.0111 O.3       1 <0>        -0.4656
     10 C8          0.0312   -2.8131   -2.4863 C.2       1 <0>         0.5706
     11 O2          0.0575   -4.0287   -2.4903 O.2       1 <0>        -0.4851
     12 N1          0.0131   -2.1356   -3.6513 N.am      1 <0>        -0.6745
     13 C9          0.1216   -2.8231   -4.8591 C.ar      1 <0>         0.2276
     14 C10        -0.4601   -4.0794   -4.9976 C.ar      1 <0>        -0.1254
     15 C11        -0.3546   -4.7608   -6.1893 C.ar      1 <0>        -0.0319
     16 C12         0.3372   -4.1896   -7.2600 C.ar      1 <0>        -0.1827
     17 C13         0.9200   -2.9281   -7.1180 C.ar      1 <0>        -0.0316
     18 C14         0.8064   -2.2491   -5.9256 C.ar      1 <0>        -0.1475
     19 C15         0.4526   -4.9184   -8.5399 C.cat     1 <0>         0.6031
     20 N2          1.1128   -4.3723   -9.5604 N.pl3     1 <0>        -0.7656
     21 N3         -0.1036   -6.1219   -8.6738 N.pl3     1 <0>        -0.7644
     22 H1          0.9649    1.8879    0.0044 H         1 <0>         0.0804
     23 H2         -0.5827    1.8596   -0.8744 H         1 <0>         0.0740
     24 H3         -0.5697    1.8504    0.9055 H         1 <0>         0.0768
     25 H4         -0.0257   -0.1367   -2.1286 H         1 <0>         0.1353
     26 H5         -0.0045   -0.1587    2.1343 H         1 <0>         0.1442
     27 H6          0.9578   -4.5113    0.0097 H         1 <0>         0.4015
     28 H7         -0.0754   -1.1697   -3.6493 H         1 <0>         0.4205
     29 H8         -0.9945   -4.5207   -4.1693 H         1 <0>         0.1635
     30 H9         -0.8060   -5.7362   -6.2961 H         1 <0>         0.1412
     31 H10         1.4555   -2.4840   -7.9441 H         1 <0>         0.1419
     32 H11         1.2530   -1.2719   -5.8166 H         1 <0>         0.1517
     33 H12         1.5176   -3.4962   -9.4629 H         1 <0>         0.4431
     34 H13        -0.5842   -6.5194   -7.9310 H         1 <0>         0.4440
     35 H14        -0.0278   -6.6004   -9.5142 H         1 <0>         0.4328
     36 H15         1.1885   -4.8508  -10.4008 H         1 <0>         0.4328
@<TRIPOS>BOND
     1    1    2 1
     2    1   22 1
     3    1   23 1
     4    1   24 1
     5    2    7 ar
     6    2    3 ar
     7    3    4 ar
     8    3   25 1
     9    4    5 ar
    10    4   10 1
    11    5    6 ar
    12    5    9 1
    13    6    7 ar
    14    6    8 1
    15    7   26 1
    16    9   27 1
    17   10   11 2
    18   10   12 am
    19   12   13 1
    20   12   28 1
    21   13   18 ar
    22   13   14 ar
    23   14   15 ar
    24   14   29 1
    25   15   16 ar
    26   15   30 1
    27   16   17 ar
    28   16   19 1
    29   17   18 ar
    30   17   31 1
    31   18   32 1
    32   19   20 2
    33   19   21 1
    34   20   33 1
    35   20   36 1
    36   21   34 1
    37   21   35 1
@<TRIPOS>MOLECULE
CHEMBL571837
   77    81     0     0     0
SMALL
USER_CHARGES

@<TRIPOS>ATOM
      1 C1         -4.3857    1.3756    2.3388 C.3       1 <0>        -0.1013
      2 C2         -4.0450   -0.0472    1.9774 C.ar      1 <0>        -0.0787
      3 C3         -4.6260   -0.6327    0.8634 C.ar      1 <0>        -0.1406
      4 C4         -4.3230   -1.9322    0.5231 C.ar      1 <0>        -0.0648
      5 C5         -3.4242   -2.6661    1.3043 C.ar      1 <0>        -0.1329
      6 C6         -2.8380   -2.0692    2.4309 C.ar      1 <0>         0.0980
      7 C7         -3.1520   -0.7571    2.7545 C.ar      1 <0>        -0.1623
      8 O1         -1.9652   -2.7696    3.1965 O.3       1 <0>        -0.1601
      9 C8         -1.0699   -2.0727    3.9423 C.ar      1 <0>         0.3261
     10 C9         -0.1825   -2.7543    4.7608 C.ar      1 <0>         0.0557
     11 C10         0.7327   -2.0288    5.5224 C.ar      1 <0>         0.2038
     12 C11         0.7177   -0.6376    5.4288 C.ar      1 <0>         0.0333
     13 C12        -0.2000   -0.0277    4.5878 C.ar      1 <0>         0.3042
     14 N1         -1.0511   -0.7502    3.8751 N.ar      1 <0>        -0.4974
     15 O2         -0.2230    1.3263    4.4893 O.3       1 <0>        -0.2240
     16 C13        -0.3322    1.8741    3.2505 C.ar      1 <0>         0.1627
     17 C14        -0.4641    3.2468    3.1098 C.ar      1 <0>        -0.1780
     18 C15        -0.5760    3.8084    1.8403 C.ar      1 <0>         0.0101
     19 C16        -0.5551    2.9888    0.7146 C.ar      1 <0>        -0.2080
     20 C17        -0.4229    1.6156    0.8609 C.ar      1 <0>         0.2613
     21 C18        -0.3058    1.0597    2.1285 C.ar      1 <0>        -0.2299
     22 N2         -0.4021    0.7921   -0.2672 N.pl3     1 <0>        -0.8652
     23 C19        -0.7179    5.2778    1.6874 C.ar      1 <0>        -0.0225
     24 C20        -0.7337    6.0996    2.8126 C.ar      1 <0>        -0.0743
     25 C21        -0.8659    7.4653    2.6647 C.ar      1 <0>        -0.1096
     26 C22        -0.9825    8.0187    1.4021 C.ar      1 <0>        -0.0956
     27 C23        -0.9674    7.2077    0.2820 C.ar      1 <0>        -0.1682
     28 C24        -0.8299    5.8409    0.4181 C.ar      1 <0>        -0.0863
     29 C25        -1.0950    7.8179   -1.0901 C.3       1 <0>         0.0477
     30 N3          0.2410    8.1416   -1.6081 N.4       1 <0>        -0.6373
     31 F1          1.5859    0.1061    6.1487 F         1 <0>        -0.1095
     32 N4          1.6414   -2.6791    6.3584 N.pl3     1 <0>        -0.6647
     33 C26         1.4086   -3.0328    7.7705 C.3       1 <0>         0.1298
     34 C27         2.3671   -4.2183    8.0456 C.3       1 <0>        -0.1466
     35 C28         3.6105   -3.8138    7.2102 C.3       1 <0>         0.0108
     36 C29         2.9870   -3.1307    5.9750 C.3       1 <0>         0.1191
     37 N5          4.3776   -5.0015    6.8116 N.4       1 <0>        -0.3825
     38 C30         5.5270   -4.5905    5.9944 C.3       1 <0>        -0.0504
     39 C31         4.8552   -5.7014    8.0116 C.3       1 <0>        -0.0472
     40 F2         -0.2046   -4.1038    4.8201 F         1 <0>        -0.0951
     41 C32        -3.0958   -4.0555    0.9472 C.2       1 <0>         0.5176
     42 O3         -3.6095   -4.5722   -0.0356 O.co2     1 <0>        -0.6804
     43 O4         -2.3092   -4.6938    1.6332 O.co2     1 <0>        -0.6728
     44 H1         -3.7762    2.0571    1.7454 H         1 <0>         0.0616
     45 H2         -5.4404    1.5597    2.1345 H         1 <0>         0.0633
     46 H3         -4.1869    1.5389    3.3980 H         1 <0>         0.0584
     47 H4         -5.3201   -0.0670    0.2596 H         1 <0>         0.1176
     48 H5         -4.7789   -2.3842   -0.3454 H         1 <0>         0.1371
     49 H6         -2.7004   -0.2919    3.6183 H         1 <0>         0.1581
     50 H7         -0.4805    3.8805    3.9842 H         1 <0>         0.1332
     51 H8         -0.6421    3.4216   -0.2711 H         1 <0>         0.1226
     52 H9         -0.1981   -0.0091    2.2405 H         1 <0>         0.1393
     53 H10        -0.4058    1.1845   -1.1542 H         1 <0>         0.4001
     54 H11        -0.3841   -0.1722   -0.1635 H         1 <0>         0.4068
     55 H12        -0.6431    5.6686    3.7987 H         1 <0>         0.1399
     56 H13        -0.8786    8.1031    3.5361 H         1 <0>         0.1381
     57 H14        -1.0861    9.0880    1.2909 H         1 <0>         0.1319
     58 H15        -0.8134    5.2090   -0.4575 H         1 <0>         0.1350
     59 H16        -1.5821    7.1087   -1.7592 H         1 <0>         0.1402
     60 H17        -1.6913    8.7282   -1.0289 H         1 <0>         0.1409
     61 H18         0.6919    8.7981   -0.9887 H         1 <0>         0.4343
     62 H19         0.7930    7.2989   -1.6648 H         1 <0>         0.4345
     63 H20         1.6519   -2.1902    8.4178 H         1 <0>         0.0763
     64 H21         0.3733   -3.3398    7.9190 H         1 <0>         0.0894
     65 H22         2.6131   -4.2840    9.1055 H         1 <0>         0.1134
     66 H23         1.9427   -5.1555    7.6858 H         1 <0>         0.1013
     67 H24         4.2379   -3.1166    7.7654 H         1 <0>         0.1559
     68 H25         2.9188   -3.8411    5.1511 H         1 <0>         0.0750
     69 H26         3.5951   -2.2754    5.6804 H         1 <0>         0.0871
     70 H27         5.1726   -4.0712    5.1040 H         1 <0>         0.1227
     71 H28         6.1651   -3.9236    6.5742 H         1 <0>         0.1236
     72 H29         6.0962   -5.4718    5.6986 H         1 <0>         0.1275
     73 H30         4.0023   -6.0064    8.6180 H         1 <0>         0.1246
     74 H31         5.4244   -6.5827    7.7158 H         1 <0>         0.1267
     75 H32         5.4933   -5.0345    8.5914 H         1 <0>         0.1228
     76 H33         0.1556    8.5501   -2.5268 H         1 <0>         0.4375
     77 H34         3.7869   -5.6189    6.2749 H         1 <0>         0.4294
@<TRIPOS>BOND
     1    1    2 1
     2    1   44 1
     3    1   45 1
     4    1   46 1
     5    2    7 ar
     6    2    3 ar
     7    3    4 ar
     8    3   47 1
     9    4    5 ar
    10    4   48 1
    11    5    6 ar
    12    5   41 1
    13    6    7 ar
    14    6    8 1
    15    7   49 1
    16    8    9 1
    17    9   14 ar
    18    9   10 ar
    19   10   11 ar
    20   10   40 1
    21   11   12 ar
    22   11   32 1
    23   12   13 ar
    24   12   31 1
    25   13   14 ar
    26   13   15 1
    27   15   16 1
    28   16   21 ar
    29   16   17 ar
    30   17   18 ar
    31   17   50 1
    32   18   19 ar
    33   18   23 1
    34   19   20 ar
    35   19   51 1
    36   20   21 ar
    37   20   22 1
    38   21   52 1
    39   22   53 1
    40   22   54 1
    41   23   28 ar
    42   23   24 ar
    43   24   25 ar
    44   24   55 1
    45   25   26 ar
    46   25   56 1
    47   26   27 ar
    48   26   57 1
    49   27   28 ar
    50   27   29 1
    51   28   58 1
    52   29   30 1
    53   29   59 1
    54   29   60 1
    55   30   61 1
    56   30   62 1
    57   30   76 1
    58   32   36 1
    59   32   33 1
    60   33   34 1
    61   33   63 1
    62   33   64 1
    63   34   35 1
    64   34   65 1
    65   34   66 1
    66   35   36 1
    67   35   37 1
    68   35   67 1
    69   36   68 1
    70   36   69 1
    71   37   38 1
    72   37   39 1
    73   37   77 1
    74   38   70 1
    75   38   71 1
    76   38   72 1
    77   39   73 1
    78   39   74 1
    79   39   75 1
    80   41   42 2
    81   41   43 1
@<TRIPOS>MOLECULE
CHEMBL571837__1
   76    80     0     0     0
SMALL
USER_CHARGES

@<TRIPOS>ATOM
      1 C1         -4.1487    1.6464    2.1401 C.3       1 <0>        -0.0993
      2 C2         -3.8422    0.2174    1.7728 C.ar      1 <0>        -0.0811
      3 C3         -4.4129   -0.3398    0.6391 C.ar      1 <0>        -0.1467
      4 C4         -4.1409   -1.6447    0.2932 C.ar      1 <0>        -0.0663
      5 C5         -3.2842   -2.4128    1.0888 C.ar      1 <0>        -0.1362
      6 C6         -2.7083   -1.8444    2.2353 C.ar      1 <0>         0.1063
      7 C7         -2.9905   -0.5265    2.5643 C.ar      1 <0>        -0.1637
      8 O1         -1.8762   -2.5781    3.0149 O.3       1 <0>        -0.1634
      9 C8         -0.9790   -1.9157    3.7894 C.ar      1 <0>         0.3174
     10 C9         -0.1330   -2.6315    4.6223 C.ar      1 <0>         0.0603
     11 C10         0.7845   -1.9413    5.4134 C.ar      1 <0>         0.2204
     12 C11         0.8136   -0.5494    5.3336 C.ar      1 <0>         0.0361
     13 C12        -0.0643    0.0959    4.4767 C.ar      1 <0>         0.2898
     14 N1         -0.9189   -0.5938    3.7361 N.ar      1 <0>        -0.5038
     15 O2         -0.0443    1.4508    4.3915 O.3       1 <0>        -0.2247
     16 C13        -0.1061    2.0133    3.1560 C.ar      1 <0>         0.1675
     17 C14        -0.1932    3.3907    3.0261 C.ar      1 <0>        -0.1791
     18 C15        -0.2565    3.9674    1.7600 C.ar      1 <0>         0.0034
     19 C16        -0.2321    3.1581    0.6268 C.ar      1 <0>        -0.2111
     20 C17        -0.1448    1.7802    0.7624 C.ar      1 <0>         0.2603
     21 C18        -0.0762    1.2091    2.0267 C.ar      1 <0>        -0.2265
     22 N2         -0.1207    0.9672   -0.3732 N.pl3     1 <0>        -0.8659
     23 C19        -0.3503    5.4417    1.6186 C.ar      1 <0>        -0.0159
     24 C20        -0.3695    6.2530    2.7514 C.ar      1 <0>        -0.0752
     25 C21        -0.4569    7.6234    2.6141 C.ar      1 <0>        -0.1099
     26 C22        -0.5254    8.1920    1.3548 C.ar      1 <0>        -0.0994
     27 C23        -0.5067    7.3915    0.2272 C.ar      1 <0>        -0.1698
     28 C24        -0.4137    6.0200    0.3527 C.ar      1 <0>        -0.0879
     29 C25        -0.5816    8.0181   -1.1413 C.3       1 <0>         0.0487
     30 N3          0.7759    8.3062   -1.6230 N.4       1 <0>        -0.6373
     31 F1          1.6857    0.1609    6.0820 F         1 <0>        -0.1101
     32 N4          1.6523   -2.6267    6.2646 N.pl3     1 <0>        -0.6719
     33 C26         1.3742   -2.9865    7.6670 C.3       1 <0>         0.1330
     34 C27         2.2897   -4.2029    7.9533 C.3       1 <0>        -0.1258
     35 C28         3.5649   -3.8284    7.1526 C.3       1 <0>         0.0741
     36 C29         2.9928   -3.1151    5.9095 C.3       1 <0>         0.1414
     37 N5          4.3056   -5.0349    6.7608 N.3       1 <0>        -0.5371
     38 C30         5.5484   -4.6853    6.0600 C.3       1 <0>         0.0219
     39 C31         4.5799   -5.8860    7.9263 C.3       1 <0>         0.0244
     40 F2         -0.1970   -3.9802    4.6673 F         1 <0>        -0.0902
     41 C32        -2.9891   -3.8081    0.7259 C.2       1 <0>         0.5164
     42 O3         -3.4936   -4.2998   -0.2743 O.co2     1 <0>        -0.6872
     43 O4         -2.2392   -4.4763    1.4244 O.co2     1 <0>        -0.6655
     44 H1         -3.5045    2.3146    1.5686 H         1 <0>         0.0601
     45 H2         -5.1920    1.8644    1.9118 H         1 <0>         0.0603
     46 H3         -3.9714    1.7938    3.2054 H         1 <0>         0.0581
     47 H4         -5.0745    0.2523    0.0242 H         1 <0>         0.1139
     48 H5         -4.5886   -2.0745   -0.5906 H         1 <0>         0.1342
     49 H6         -2.5466   -0.0833    3.4435 H         1 <0>         0.1600
     50 H7         -0.2123    4.0163    3.9062 H         1 <0>         0.1319
     51 H8         -0.2814    3.6026   -0.3562 H         1 <0>         0.1200
     52 H9         -0.0034    0.1365    2.1305 H         1 <0>         0.1423
     53 H10        -0.0905    1.3679   -1.2560 H         1 <0>         0.3981
     54 H11        -0.1342    0.0019   -0.2789 H         1 <0>         0.4077
     55 H12        -0.3165    5.8101    3.7350 H         1 <0>         0.1407
     56 H13        -0.4723    8.2531    3.4914 H         1 <0>         0.1369
     57 H14        -0.5940    9.2649    1.2519 H         1 <0>         0.1299
     58 H15        -0.3944    5.3961   -0.5286 H         1 <0>         0.1349
     59 H16        -1.0730    7.3303   -1.8295 H         1 <0>         0.1396
     60 H17        -1.1518    8.9455   -1.0856 H         1 <0>         0.1395
     61 H18         1.2308    8.9429   -0.9860 H         1 <0>         0.4340
     62 H19         1.3037    7.4478   -1.6746 H         1 <0>         0.4351
     63 H20         1.6266   -2.1577    8.3285 H         1 <0>         0.0582
     64 H21         0.3269   -3.2634    7.7870 H         1 <0>         0.0694
     65 H22         2.5073   -4.2860    9.0181 H         1 <0>         0.0815
     66 H23         1.8463   -5.1234    7.5737 H         1 <0>         0.0905
     67 H24         4.1991   -3.1557    7.7300 H         1 <0>         0.0587
     68 H25         2.9238   -3.8153    5.0770 H         1 <0>         0.0713
     69 H26         3.6334   -2.2758    5.6386 H         1 <0>         0.0523
     70 H27         6.1792   -4.0856    6.7163 H         1 <0>         0.0257
     71 H28         6.0771   -5.5968    5.7813 H         1 <0>         0.0714
     72 H29         5.3111   -4.1140    5.1626 H         1 <0>         0.0690
     73 H30         3.6407   -6.2680    8.3263 H         1 <0>         0.0727
     74 H31         5.2131   -6.7207    7.6256 H         1 <0>         0.0696
     75 H32         5.0895   -5.3007    8.6917 H         1 <0>         0.0258
     76 H33         0.7258    8.7257   -2.5393 H         1 <0>         0.4361
@<TRIPOS>BOND
     1    1    2 1
     2    1   44 1
     3    1   45 1
     4    1   46 1
     5    2    7 ar
     6    2    3 ar
     7    3    4 ar
     8    3   47 1
     9    4    5 ar
    10    4   48 1
    11    5    6 ar
    12    5   41 1
    13    6    7 ar
    14    6    8 1
    15    7   49 1
    16    8    9 1
    17    9   14 ar
    18    9   10 ar
    19   10   11 ar
    20   10   40 1
    21   11   12 ar
    22   11   32 1
    23   12   13 ar
    24   12   31 1
    25   13   14 ar
    26   13   15 1
    27   15   16 1
    28   16   21 ar
    29   16   17 ar
    30   17   18 ar
    31   17   50 1
    32   18   19 ar
    33   18   23 1
    34   19   20 ar
    35   19   51 1
    36   20   21 ar
    37   20   22 1
    38   21   52 1
    39   22   53 1
    40   22   54 1
    41   23   28 ar
    42   23   24 ar
    43   24   25 ar
    44   24   55 1
    45   25   26 ar
    46   25   56 1
    47   26   27 ar
    48   26   57 1
    49   27   28 ar
    50   27   29 1
    51   28   58 1
    52   29   30 1
    53   29   59 1
    54   29   60 1
    55   30   61 1
    56   30   62 1
    57   30   76 1
    58   32   36 1
    59   32   33 1
    60   33   34 1
    61   33   63 1
    62   33   64 1
    63   34   35 1
    64   34   65 1
    65   34   66 1
    66   35   36 1
    67   35   37 1
    68   35   67 1
    69   36   68 1
    70   36   69 1
    71   37   38 1
    72   37   39 1
    73   38   70 1
    74   38   71 1
    75   38   72 1
    76   39   73 1
    77   39   74 1
    78   39   75 1
    79   41   42 2
    80   41   43 1
@<TRIPOS>MOLECULE
CHEMBL571837__2
   77    81     0     0     0
SMALL
USER_CHARGES

@<TRIPOS>ATOM
      1 C1         -4.3857    1.3756    2.3388 C.3       1 <0>        -0.1012
      2 C2         -4.0450   -0.0472    1.9774 C.ar      1 <0>        -0.0789
      3 C3         -4.6260   -0.6327    0.8634 C.ar      1 <0>        -0.1406
      4 C4         -4.3230   -1.9322    0.5231 C.ar      1 <0>        -0.0648
      5 C5         -3.4242   -2.6661    1.3043 C.ar      1 <0>        -0.1326
      6 C6         -2.8380   -2.0692    2.4309 C.ar      1 <0>         0.0979
      7 C7         -3.1520   -0.7571    2.7545 C.ar      1 <0>        -0.1622
      8 O1         -1.9652   -2.7696    3.1965 O.3       1 <0>        -0.1597
      9 C8         -1.0699   -2.0727    3.9423 C.ar      1 <0>         0.3263
     10 C9         -0.1825   -2.7543    4.7608 C.ar      1 <0>         0.0572
     11 C10         0.7327   -2.0288    5.5224 C.ar      1 <0>         0.2030
     12 C11         0.7177   -0.6376    5.4288 C.ar      1 <0>         0.0331
     13 C12        -0.2000   -0.0277    4.5878 C.ar      1 <0>         0.3040
     14 N1         -1.0511   -0.7502    3.8751 N.ar      1 <0>        -0.4972
     15 O2         -0.2230    1.3263    4.4893 O.3       1 <0>        -0.2241
     16 C13        -0.3322    1.8741    3.2505 C.ar      1 <0>         0.1627
     17 C14        -0.4641    3.2468    3.1098 C.ar      1 <0>        -0.1782
     18 C15        -0.5760    3.8084    1.8403 C.ar      1 <0>         0.0100
     19 C16        -0.5551    2.9888    0.7146 C.ar      1 <0>        -0.2081
     20 C17        -0.4229    1.6156    0.8609 C.ar      1 <0>         0.2613
     21 C18        -0.3058    1.0597    2.1285 C.ar      1 <0>        -0.2299
     22 N2         -0.4021    0.7921   -0.2672 N.pl3     1 <0>        -0.8652
     23 C19        -0.7179    5.2778    1.6874 C.ar      1 <0>        -0.0224
     24 C20        -0.7337    6.0996    2.8126 C.ar      1 <0>        -0.0744
     25 C21        -0.8659    7.4653    2.6647 C.ar      1 <0>        -0.1097
     26 C22        -0.9825    8.0187    1.4021 C.ar      1 <0>        -0.0956
     27 C23        -0.9674    7.2077    0.2820 C.ar      1 <0>        -0.1682
     28 C24        -0.8299    5.8409    0.4181 C.ar      1 <0>        -0.0862
     29 C25        -1.0950    7.8179   -1.0901 C.3       1 <0>         0.0477
     30 N3          0.2410    8.1416   -1.6081 N.4       1 <0>        -0.6373
     31 F1          1.5859    0.1061    6.1487 F         1 <0>        -0.1103
     32 N4          1.6414   -2.6791    6.3584 N.pl3     1 <0>        -0.6617
     33 C26         1.4092   -3.0319    7.7667 C.3       1 <0>         0.1279
     34 C27         2.6738   -3.7581    8.2716 C.3       1 <0>        -0.1392
     35 C28         3.3241   -4.2752    6.9612 C.3       1 <0>         0.0017
     36 C29         2.9906   -3.1319    5.9739 C.3       1 <0>         0.1217
     37 N5          4.7763   -4.4304    7.1197 N.4       1 <0>        -0.3785
     38 C30         5.0513   -5.4196    8.1702 C.3       1 <0>        -0.0478
     39 C31         5.3612   -4.8870    5.8519 C.3       1 <0>        -0.0508
     40 F2         -0.2046   -4.1038    4.8201 F         1 <0>        -0.0937
     41 C32        -3.0958   -4.0555    0.9472 C.2       1 <0>         0.5174
     42 O3         -3.6095   -4.5722   -0.0356 O.co2     1 <0>        -0.6805
     43 O4         -2.3092   -4.6938    1.6332 O.co2     1 <0>        -0.6722
     44 H1         -3.7762    2.0571    1.7454 H         1 <0>         0.0615
     45 H2         -5.4404    1.5597    2.1345 H         1 <0>         0.0632
     46 H3         -4.1869    1.5389    3.3980 H         1 <0>         0.0584
     47 H4         -5.3201   -0.0670    0.2596 H         1 <0>         0.1175
     48 H5         -4.7789   -2.3842   -0.3454 H         1 <0>         0.1371
     49 H6         -2.7004   -0.2919    3.6183 H         1 <0>         0.1580
     50 H7         -0.4805    3.8805    3.9842 H         1 <0>         0.1331
     51 H8         -0.6421    3.4216   -0.2711 H         1 <0>         0.1226
     52 H9         -0.1981   -0.0091    2.2405 H         1 <0>         0.1395
     53 H10        -0.4058    1.1845   -1.1542 H         1 <0>         0.4001
     54 H11        -0.3841   -0.1722   -0.1635 H         1 <0>         0.4069
     55 H12        -0.6431    5.6686    3.7987 H         1 <0>         0.1398
     56 H13        -0.8786    8.1031    3.5361 H         1 <0>         0.1380
     57 H14        -1.0861    9.0880    1.2909 H         1 <0>         0.1319
     58 H15        -0.8134    5.2090   -0.4575 H         1 <0>         0.1351
     59 H16        -1.5821    7.1087   -1.7592 H         1 <0>         0.1402
     60 H17        -1.6913    8.7282   -1.0289 H         1 <0>         0.1409
     61 H18         0.6919    8.7981   -0.9887 H         1 <0>         0.4343
     62 H19         0.7930    7.2989   -1.6648 H         1 <0>         0.4345
     63 H20         1.2420   -2.1280    8.3525 H         1 <0>         0.0783
     64 H21         0.5458   -3.6925    7.8459 H         1 <0>         0.0778
     65 H22         3.3390   -3.0631    8.7841 H         1 <0>         0.0977
     66 H23         2.4065   -4.5897    8.9237 H         1 <0>         0.1122
     67 H24         2.8656   -5.2104    6.6400 H         1 <0>         0.1583
     68 H25         2.9884   -3.5036    4.9492 H         1 <0>         0.0943
     69 H26         3.7087   -2.3190    6.0819 H         1 <0>         0.0748
     70 H27         4.6173   -5.0808    9.1109 H         1 <0>         0.1238
     71 H28         4.6118   -6.3774    7.8914 H         1 <0>         0.1247
     72 H29         6.1288   -5.5348    8.2878 H         1 <0>         0.1262
     73 H30         5.1572   -4.1529    5.0723 H         1 <0>         0.1228
     74 H31         6.4387   -5.0022    5.9694 H         1 <0>         0.1270
     75 H32         4.9217   -5.8447    5.5731 H         1 <0>         0.1261
     76 H33         0.1556    8.5501   -2.5268 H         1 <0>         0.4375
     77 H34         5.1831   -3.5438    7.3777 H         1 <0>         0.4249
@<TRIPOS>BOND
     1    1    2 1
     2    1   44 1
     3    1   45 1
     4    1   46 1
     5    2    7 ar
     6    2    3 ar
     7    3    4 ar
     8    3   47 1
     9    4    5 ar
    10    4   48 1
    11    5    6 ar
    12    5   41 1
    13    6    7 ar
    14    6    8 1
    15    7   49 1
    16    8    9 1
    17    9   14 ar
    18    9   10 ar
    19   10   11 ar
    20   10   40 1
    21   11   12 ar
    22   11   32 1
    23   12   13 ar
    24   12   31 1
    25   13   14 ar
    26   13   15 1
    27   15   16 1
    28   16   21 ar
    29   16   17 ar
    30   17   18 ar
    31   17   50 1
    32   18   19 ar
    33   18   23 1
    34   19   20 ar
    35   19   51 1
    36   20   21 ar
    37   20   22 1
    38   21   52 1
    39   22   53 1
    40   22   54 1
    41   23   28 ar
    42   23   24 ar
    43   24   25 ar
    44   24   55 1
    45   25   26 ar
    46   25   56 1
    47   26   27 ar
    48   26   57 1
    49   27   28 ar
    50   27   29 1
    51   28   58 1
    52   29   30 1
    53   29   59 1
    54   29   60 1
    55   30   61 1
    56   30   62 1
    57   30   76 1
    58   32   36 1
    59   32   33 1
    60   33   34 1
    61   33   63 1
    62   33   64 1
    63   34   35 1
    64   34   65 1
    65   34   66 1
    66   35   36 1
    67   35   37 1
    68   35   67 1
    69   36   68 1
    70   36   69 1
    71   37   38 1
    72   37   39 1
    73   37   77 1
    74   38   70 1
    75   38   71 1
    76   38   72 1
    77   39   73 1
    78   39   74 1
    79   39   75 1
    80   41   42 2
    81   41   43 1
@<TRIPOS>MOLECULE
CHEMBL571837__3
   76    80     0     0     0
SMALL
USER_CHARGES

@<TRIPOS>ATOM
      1 C1         -4.3857    1.3756    2.3388 C.3       1 <0>        -0.0994
      2 C2         -4.0450   -0.0472    1.9774 C.ar      1 <0>        -0.0807
      3 C3         -4.6260   -0.6327    0.8634 C.ar      1 <0>        -0.1466
      4 C4         -4.3230   -1.9322    0.5231 C.ar      1 <0>        -0.0662
      5 C5         -3.4242   -2.6661    1.3043 C.ar      1 <0>        -0.1365
      6 C6         -2.8380   -2.0692    2.4309 C.ar      1 <0>         0.1062
      7 C7         -3.1520   -0.7571    2.7545 C.ar      1 <0>        -0.1635
      8 O1         -1.9652   -2.7696    3.1965 O.3       1 <0>        -0.1638
      9 C8         -1.0699   -2.0727    3.9423 C.ar      1 <0>         0.3177
     10 C9         -0.1825   -2.7543    4.7608 C.ar      1 <0>         0.0577
     11 C10         0.7327   -2.0288    5.5224 C.ar      1 <0>         0.2206
     12 C11         0.7177   -0.6376    5.4288 C.ar      1 <0>         0.0378
     13 C12        -0.2000   -0.0277    4.5878 C.ar      1 <0>         0.2906
     14 N1         -1.0511   -0.7502    3.8751 N.ar      1 <0>        -0.5037
     15 O2         -0.2230    1.3263    4.4893 O.3       1 <0>        -0.2243
     16 C13        -0.3322    1.8741    3.2505 C.ar      1 <0>         0.1676
     17 C14        -0.4641    3.2468    3.1098 C.ar      1 <0>        -0.1788
     18 C15        -0.5760    3.8084    1.8403 C.ar      1 <0>         0.0036
     19 C16        -0.5551    2.9888    0.7146 C.ar      1 <0>        -0.2110
     20 C17        -0.4229    1.6156    0.8609 C.ar      1 <0>         0.2602
     21 C18        -0.3058    1.0597    2.1285 C.ar      1 <0>        -0.2267
     22 N2         -0.4021    0.7921   -0.2672 N.pl3     1 <0>        -0.8660
     23 C19        -0.7179    5.2778    1.6874 C.ar      1 <0>        -0.0161
     24 C20        -0.7337    6.0996    2.8126 C.ar      1 <0>        -0.0750
     25 C21        -0.8659    7.4653    2.6647 C.ar      1 <0>        -0.1098
     26 C22        -0.9825    8.0187    1.4021 C.ar      1 <0>        -0.0993
     27 C23        -0.9674    7.2077    0.2820 C.ar      1 <0>        -0.1699
     28 C24        -0.8299    5.8409    0.4181 C.ar      1 <0>        -0.0878
     29 C25        -1.0950    7.8179   -1.0901 C.3       1 <0>         0.0488
     30 N3          0.2410    8.1416   -1.6081 N.4       1 <0>        -0.6374
     31 F1          1.5859    0.1061    6.1487 F         1 <0>        -0.1083
     32 N4          1.6414   -2.6791    6.3584 N.pl3     1 <0>        -0.6728
     33 C26         1.4092   -3.0319    7.7667 C.3       1 <0>         0.1334
     34 C27         2.6738   -3.7581    8.2716 C.3       1 <0>        -0.1191
     35 C28         3.3241   -4.2752    6.9612 C.3       1 <0>         0.0672
     36 C29         2.9906   -3.1319    5.9739 C.3       1 <0>         0.1424
     37 N5          4.7763   -4.4304    7.1197 N.3       1 <0>        -0.5361
     38 C30         5.0897   -5.4143    8.1644 C.3       1 <0>         0.0234
     39 C31         5.4088   -4.7961    5.8453 C.3       1 <0>         0.0196
     40 F2         -0.2046   -4.1038    4.8201 F         1 <0>        -0.0927
     41 C32        -3.0958   -4.0555    0.9472 C.2       1 <0>         0.5167
     42 O3         -3.6095   -4.5722   -0.0356 O.co2     1 <0>        -0.6870
     43 O4         -2.3092   -4.6938    1.6332 O.co2     1 <0>        -0.6665
     44 H1         -3.7762    2.0571    1.7454 H         1 <0>         0.0603
     45 H2         -5.4404    1.5597    2.1345 H         1 <0>         0.0604
     46 H3         -4.1869    1.5389    3.3980 H         1 <0>         0.0583
     47 H4         -5.3201   -0.0670    0.2596 H         1 <0>         0.1140
     48 H5         -4.7789   -2.3842   -0.3454 H         1 <0>         0.1342
     49 H6         -2.7004   -0.2919    3.6183 H         1 <0>         0.1601
     50 H7         -0.4805    3.8805    3.9842 H         1 <0>         0.1321
     51 H8         -0.6421    3.4216   -0.2711 H         1 <0>         0.1201
     52 H9         -0.1981   -0.0091    2.2405 H         1 <0>         0.1421
     53 H10        -0.4058    1.1845   -1.1542 H         1 <0>         0.3981
     54 H11        -0.3841   -0.1722   -0.1635 H         1 <0>         0.4076
     55 H12        -0.6431    5.6686    3.7987 H         1 <0>         0.1408
     56 H13        -0.8786    8.1031    3.5361 H         1 <0>         0.1370
     57 H14        -1.0861    9.0880    1.2909 H         1 <0>         0.1299
     58 H15        -0.8134    5.2090   -0.4575 H         1 <0>         0.1348
     59 H16        -1.5821    7.1087   -1.7592 H         1 <0>         0.1396
     60 H17        -1.6913    8.7282   -1.0289 H         1 <0>         0.1395
     61 H18         0.6919    8.7981   -0.9887 H         1 <0>         0.4340
     62 H19         0.7930    7.2989   -1.6648 H         1 <0>         0.4352
     63 H20         1.2420   -2.1280    8.3525 H         1 <0>         0.0597
     64 H21         0.5458   -3.6925    7.8459 H         1 <0>         0.0585
     65 H22         3.3390   -3.0631    8.7841 H         1 <0>         0.0873
     66 H23         2.4065   -4.5897    8.9237 H         1 <0>         0.0805
     67 H24         2.8656   -5.2104    6.6400 H         1 <0>         0.0619
     68 H25         2.9884   -3.5036    4.9492 H         1 <0>         0.0633
     69 H26         3.7087   -2.3190    6.0819 H         1 <0>         0.0687
     70 H27         4.6624   -6.3800    7.8940 H         1 <0>         0.0277
     71 H28         6.1712   -5.5098    8.2610 H         1 <0>         0.0699
     72 H29         4.6679   -5.0834    9.1135 H         1 <0>         0.0709
     73 H30         5.2191   -4.0157    5.1083 H         1 <0>         0.0694
     74 H31         6.4836   -4.9046    5.9910 H         1 <0>         0.0705
     75 H32         4.9932   -5.7393    5.4908 H         1 <0>         0.0294
     76 H33         0.1556    8.5501   -2.5268 H         1 <0>         0.4361
@<TRIPOS>BOND
     1    1    2 1
     2    1   44 1
     3    1   45 1
     4    1   46 1
     5    2    7 ar
     6    2    3 ar
     7    3    4 ar
     8    3   47 1
     9    4    5 ar
    10    4   48 1
    11    5    6 ar
    12    5   41 1
    13    6    7 ar
    14    6    8 1
    15    7   49 1
    16    8    9 1
    17    9   14 ar
    18    9   10 ar
    19   10   11 ar
    20   10   40 1
    21   11   12 ar
    22   11   32 1
    23   12   13 ar
    24   12   31 1
    25   13   14 ar
    26   13   15 1
    27   15   16 1
    28   16   21 ar
    29   16   17 ar
    30   17   18 ar
    31   17   50 1
    32   18   19 ar
    33   18   23 1
    34   19   20 ar
    35   19   51 1
    36   20   21 ar
    37   20   22 1
    38   21   52 1
    39   22   53 1
    40   22   54 1
    41   23   28 ar
    42   23   24 ar
    43   24   25 ar
    44   24   55 1
    45   25   26 ar
    46   25   56 1
    47   26   27 ar
    48   26   57 1
    49   27   28 ar
    50   27   29 1
    51   28   58 1
    52   29   30 1
    53   29   59 1
    54   29   60 1
    55   30   61 1
    56   30   62 1
    57   30   76 1
    58   32   36 1
    59   32   33 1
    60   33   34 1
    61   33   63 1
    62   33   64 1
    63   34   35 1
    64   34   65 1
    65   34   66 1
    66   35   36 1
    67   35   37 1
    68   35   67 1
    69   36   68 1
    70   36   69 1
    71   37   38 1
    72   37   39 1
    73   38   70 1
    74   38   71 1
    75   38   72 1
    76   39   73 1
    77   39   74 1
    78   39   75 1
    79   41   42 2
    80   41   43 1
@<TRIPOS>MOLECULE
CHEMBL62588
   47    50     0     0     0
SMALL
USER_CHARGES

@<TRIPOS>ATOM
      1 C1          0.0088    1.3535   -0.4249 C.ar      1 <0>        -0.0836
      2 C2          1.1857    2.0696   -0.3676 C.ar      1 <0>        -0.1177
      3 C3          2.4046    1.4006   -0.2371 C.ar      1 <0>        -0.0567
      4 C4          2.4240    0.0033   -0.1651 C.ar      1 <0>         0.1429
      5 C5          1.2296   -0.7060   -0.2242 C.ar      1 <0>         0.1095
      6 C6          0.0277   -0.0288   -0.3537 C.ar      1 <0>        -0.1673
      7 O1          1.2410   -2.0642   -0.1553 O.3       1 <0>        -0.2877
      8 C7         -0.0228   -2.7278   -0.2221 C.3       1 <0>         0.0457
      9 C8          0.1897   -4.2401   -0.1295 C.3       1 <0>         0.0830
     10 C9         -1.1574   -4.9707   -0.3163 C.3       1 <0>        -0.1488
     11 C10        -1.0516   -6.1262    0.7160 C.3       1 <0>        -0.1564
     12 C11        -0.2419   -5.4392    1.8444 C.3       1 <0>         0.0450
     13 O2          0.6912   -4.5818    1.1679 O.3       1 <0>        -0.3687
     14 O3          3.6044   -0.6572   -0.0386 O.3       1 <0>        -0.4592
     15 C12         3.6674    2.1644   -0.1758 C.2       1 <0>         0.3920
     16 N1          3.7658    3.5275   -0.2318 N.pl3     1 <0>        -0.5856
     17 H1          3.0317    4.1558   -0.3173 H         1 <0>         0.4347
     18 C13         5.1111    3.8408   -0.1432 C.ar      1 <0>         0.0240
     19 C14         5.8194    5.0286   -0.1449 C.ar      1 <0>        -0.0003
     20 C15         7.2095    5.0026   -0.0379 C.ar      1 <0>        -0.1974
     21 C16         7.8842    3.7770    0.0709 C.ar      1 <0>         0.1402
     22 C17         7.1896    2.6027    0.0725 C.ar      1 <0>        -0.0902
     23 C18         5.7928    2.6132   -0.0339 C.ar      1 <0>         0.1386
     24 N2          4.8630    1.6375   -0.0540 N.2       1 <0>        -0.4598
     25 F1          9.2312    3.7597    0.1742 F         1 <0>        -0.1214
     26 C19         7.9724    6.2661   -0.0394 C.cat     1 <0>         0.6150
     27 N3          8.9413    6.4586   -0.9346 N.pl3     1 <0>        -0.7471
     28 N4          7.6926    7.2148    0.8544 N.pl3     1 <0>        -0.7526
     29 H2         -0.9327    1.8738   -0.5213 H         1 <0>         0.1414
     30 H3          1.1649    3.1479   -0.4239 H         1 <0>         0.1280
     31 H4         -0.8987   -0.5821   -0.3994 H         1 <0>         0.1416
     32 H5         -0.6507   -2.3978    0.6056 H         1 <0>         0.0707
     33 H6         -0.5104   -2.4865   -1.1666 H         1 <0>         0.0770
     34 H7          0.8956   -4.5618   -0.8953 H         1 <0>         0.0947
     35 H8         -1.9923   -4.3121   -0.0771 H         1 <0>         0.0813
     36 H9         -1.2490   -5.3627   -1.3292 H         1 <0>         0.0913
     37 H10        -2.0373   -6.4295    1.0686 H         1 <0>         0.0887
     38 H11        -0.5064   -6.9744    0.3018 H         1 <0>         0.0835
     39 H12        -0.9034   -4.8512    2.4806 H         1 <0>         0.0616
     40 H13         0.2896   -6.1845    2.4363 H         1 <0>         0.0903
     41 H14         3.8766   -0.8041    0.8776 H         1 <0>         0.3953
     42 H15         5.2988    5.9711   -0.2290 H         1 <0>         0.1525
     43 H16         7.7172    1.6640    0.1559 H         1 <0>         0.1669
     44 H17         9.0951    5.8018   -1.6316 H         1 <0>         0.4496
     45 H18         6.9876    7.0747    1.5058 H         1 <0>         0.4479
     46 H19         8.1939    8.0452    0.8534 H         1 <0>         0.4335
     47 H20         9.4924    7.2555   -0.8890 H         1 <0>         0.4340
@<TRIPOS>BOND
     1    1    6 ar
     2    1    2 ar
     3    1   29 1
     4    2    3 ar
     5    2   30 1
     6    3    4 ar
     7    3   15 1
     8    4    5 ar
     9    4   14 1
    10    5    6 ar
    11    5    7 1
    12    6   31 1
    13    7    8 1
    14    8    9 1
    15    8   32 1
    16    8   33 1
    17    9   13 1
    18    9   10 1
    19    9   34 1
    20   10   11 1
    21   10   35 1
    22   10   36 1
    23   11   12 1
    24   11   37 1
    25   11   38 1
    26   12   13 1
    27   12   39 1
    28   12   40 1
    29   14   41 1
    30   15   24 2
    31   15   16 1
    32   16   17 1
    33   16   18 1
    34   18   23 ar
    35   18   19 ar
    36   19   20 ar
    37   19   42 1
    38   20   21 ar
    39   20   26 1
    40   21   22 ar
    41   21   25 1
    42   22   23 ar
    43   22   43 1
    44   23   24 1
    45   26   27 2
    46   26   28 1
    47   27   44 1
    48   27   47 1
    49   28   45 1
    50   28   46 1
@<TRIPOS>MOLECULE
CHEMBL62588__1
   47    50     0     0     0
SMALL
USER_CHARGES

@<TRIPOS>ATOM
      1 C1          0.0088    1.3535   -0.4249 C.ar      1 <0>        -0.0834
      2 C2          1.1857    2.0696   -0.3676 C.ar      1 <0>        -0.1174
      3 C3          2.4046    1.4006   -0.2371 C.ar      1 <0>        -0.0567
      4 C4          2.4240    0.0033   -0.1651 C.ar      1 <0>         0.1429
      5 C5          1.2296   -0.7060   -0.2242 C.ar      1 <0>         0.1096
      6 C6          0.0277   -0.0288   -0.3537 C.ar      1 <0>        -0.1670
      7 O1          1.2410   -2.0642   -0.1553 O.3       1 <0>        -0.2888
      8 C7         -0.0228   -2.7278   -0.2221 C.3       1 <0>         0.0572
      9 C8          0.1897   -4.2401   -0.1295 C.3       1 <0>         0.0830
     10 C9         -1.1733   -4.9768   -0.1454 C.3       1 <0>        -0.1495
     11 C10        -0.7498   -6.3689   -0.6880 C.3       1 <0>        -0.1555
     12 C11         0.3890   -6.0070   -1.6655 C.3       1 <0>         0.0468
     13 O2          0.8876   -4.7175   -1.2908 O.3       1 <0>        -0.3710
     14 O3          3.6044   -0.6572   -0.0386 O.3       1 <0>        -0.4580
     15 C12         3.6674    2.1644   -0.1758 C.2       1 <0>         0.3920
     16 N1          3.7658    3.5275   -0.2318 N.pl3     1 <0>        -0.5855
     17 H1          3.0317    4.1558   -0.3173 H         1 <0>         0.4347
     18 C13         5.1111    3.8408   -0.1432 C.ar      1 <0>         0.0241
     19 C14         5.8194    5.0286   -0.1449 C.ar      1 <0>        -0.0003
     20 C15         7.2095    5.0026   -0.0379 C.ar      1 <0>        -0.1974
     21 C16         7.8842    3.7770    0.0709 C.ar      1 <0>         0.1402
     22 C17         7.1896    2.6027    0.0725 C.ar      1 <0>        -0.0902
     23 C18         5.7928    2.6132   -0.0339 C.ar      1 <0>         0.1386
     24 N2          4.8630    1.6375   -0.0540 N.2       1 <0>        -0.4598
     25 F1          9.2312    3.7597    0.1742 F         1 <0>        -0.1214
     26 C19         7.9724    6.2661   -0.0394 C.cat     1 <0>         0.6149
     27 N3          8.9413    6.4586   -0.9346 N.pl3     1 <0>        -0.7471
     28 N4          7.6926    7.2148    0.8544 N.pl3     1 <0>        -0.7526
     29 H2         -0.9327    1.8738   -0.5213 H         1 <0>         0.1416
     30 H3          1.1649    3.1479   -0.4239 H         1 <0>         0.1281
     31 H4         -0.8987   -0.5821   -0.3994 H         1 <0>         0.1423
     32 H5         -0.6507   -2.3978    0.6056 H         1 <0>         0.0800
     33 H6         -0.5104   -2.4865   -1.1666 H         1 <0>         0.0744
     34 H7          0.7454   -4.4888    0.7746 H         1 <0>         0.0844
     35 H8         -1.5886   -5.0564    0.8593 H         1 <0>         0.0907
     36 H9         -1.8757   -4.4888   -0.8212 H         1 <0>         0.0834
     37 H10        -0.3820   -7.0039    0.1180 H         1 <0>         0.0813
     38 H11        -1.5754   -6.8477   -1.2145 H         1 <0>         0.0879
     39 H12         1.1864   -6.7467   -1.5944 H         1 <0>         0.0729
     40 H13         0.0045   -5.9729   -2.6848 H         1 <0>         0.0724
     41 H14         3.8766   -0.8041    0.8776 H         1 <0>         0.3939
     42 H15         5.2988    5.9711   -0.2290 H         1 <0>         0.1525
     43 H16         7.7172    1.6640    0.1559 H         1 <0>         0.1669
     44 H17         9.0951    5.8018   -1.6316 H         1 <0>         0.4496
     45 H18         6.9876    7.0747    1.5058 H         1 <0>         0.4479
     46 H19         8.1939    8.0452    0.8534 H         1 <0>         0.4335
     47 H20         9.4924    7.2555   -0.8890 H         1 <0>         0.4340
@<TRIPOS>BOND
     1    1    6 ar
     2    1    2 ar
     3    1   29 1
     4    2    3 ar
     5    2   30 1
     6    3    4 ar
     7    3   15 1
     8    4    5 ar
     9    4   14 1
    10    5    6 ar
    11    5    7 1
    12    6   31 1
    13    7    8 1
    14    8    9 1
    15    8   32 1
    16    8   33 1
    17    9   13 1
    18    9   10 1
    19    9   34 1
    20   10   11 1
    21   10   35 1
    22   10   36 1
    23   11   12 1
    24   11   37 1
    25   11   38 1
    26   12   13 1
    27   12   39 1
    28   12   40 1
    29   14   41 1
    30   15   24 2
    31   15   16 1
    32   16   17 1
    33   16   18 1
    34   18   23 ar
    35   18   19 ar
    36   19   20 ar
    37   19   42 1
    38   20   21 ar
    39   20   26 1
    40   21   22 ar
    41   21   25 1
    42   22   23 ar
    43   22   43 1
    44   23   24 1
    45   26   27 2
    46   26   28 1
    47   27   44 1
    48   27   47 1
    49   28   45 1
    50   28   46 1
@<TRIPOS>MOLECULE
CHEMBL62397
   49    52     0     0     0
SMALL
USER_CHARGES

@<TRIPOS>ATOM
      1 C1          0.0088    1.3535   -0.4249 C.ar      1 <0>        -0.0811
      2 C2          1.1857    2.0696   -0.3676 C.ar      1 <0>        -0.1015
      3 C3          2.4046    1.4006   -0.2371 C.ar      1 <0>        -0.0444
      4 C4          2.4240    0.0033   -0.1651 C.ar      1 <0>         0.1470
      5 C5          1.2296   -0.7060   -0.2242 C.ar      1 <0>         0.0919
      6 C6          0.0277   -0.0288   -0.3537 C.ar      1 <0>        -0.1600
      7 O1          1.2410   -2.0642   -0.1553 O.3       1 <0>        -0.3120
      8 C7         -0.0228   -2.7278   -0.2221 C.3       1 <0>         0.0298
      9 C8          0.1897   -4.2401   -0.1295 C.3       1 <0>         0.0339
     10 H1         -0.7536   -4.7651   -0.2799 H         1 <0>         0.1634
     11 C9          1.2366   -4.7025   -1.1735 C.3       1 <0>        -0.1393
     12 C10         1.7586   -6.0157   -0.5334 C.3       1 <0>        -0.1430
     13 C11         1.7381   -5.6985    0.9767 C.3       1 <0>        -0.0078
     14 N1          0.7751   -4.5984    1.1800 N.4       1 <0>        -0.5148
     15 O2          3.6044   -0.6572   -0.0386 O.3       1 <0>        -0.4586
     16 C12         3.6674    2.1644   -0.1758 C.2       1 <0>         0.3750
     17 N2          3.7658    3.5275   -0.2318 N.pl3     1 <0>        -0.5827
     18 H2          3.0317    4.1558   -0.3173 H         1 <0>         0.4358
     19 C13         5.1111    3.8408   -0.1432 C.ar      1 <0>         0.0288
     20 C14         5.8194    5.0286   -0.1449 C.ar      1 <0>        -0.0007
     21 C15         7.2095    5.0026   -0.0379 C.ar      1 <0>        -0.1873
     22 C16         7.8842    3.7770    0.0709 C.ar      1 <0>         0.1430
     23 C17         7.1896    2.6027    0.0725 C.ar      1 <0>        -0.0892
     24 C18         5.7928    2.6132   -0.0339 C.ar      1 <0>         0.1334
     25 N3          4.8630    1.6375   -0.0540 N.2       1 <0>        -0.4577
     26 F1          9.2312    3.7597    0.1742 F         1 <0>        -0.1180
     27 C19         7.9724    6.2661   -0.0394 C.cat     1 <0>         0.6112
     28 N4          8.9413    6.4586   -0.9346 N.pl3     1 <0>        -0.7445
     29 N5          7.6926    7.2148    0.8544 N.pl3     1 <0>        -0.7503
     30 H3         -0.9327    1.8738   -0.5213 H         1 <0>         0.1477
     31 H4          1.1649    3.1479   -0.4239 H         1 <0>         0.1348
     32 H5         -0.8987   -0.5821   -0.3994 H         1 <0>         0.1432
     33 H6         -0.6507   -2.3978    0.6056 H         1 <0>         0.0921
     34 H7         -0.5104   -2.4865   -1.1666 H         1 <0>         0.1138
     35 H8          0.7667   -4.8979   -2.1375 H         1 <0>         0.1191
     36 H9          2.0384   -3.9709   -1.2729 H         1 <0>         0.1110
     37 H10         1.0919   -6.8473   -0.7616 H         1 <0>         0.1017
     38 H11         2.7734   -6.2308   -0.8683 H         1 <0>         0.1156
     39 H12         1.4179   -6.5776    1.5359 H         1 <0>         0.1361
     40 H13         2.7307   -5.3892    1.3041 H         1 <0>         0.1341
     41 H14         1.2512   -3.7986    1.5694 H         1 <0>         0.4314
     42 H15         3.8766   -0.8041    0.8776 H         1 <0>         0.3942
     43 H16         5.2988    5.9711   -0.2290 H         1 <0>         0.1553
     44 H17         7.7172    1.6640    0.1559 H         1 <0>         0.1673
     45 H18         9.0951    5.8018   -1.6316 H         1 <0>         0.4498
     46 H19         6.9876    7.0747    1.5058 H         1 <0>         0.4479
     47 H20         8.1939    8.0452    0.8534 H         1 <0>         0.4359
     48 H21         9.4924    7.2555   -0.8890 H         1 <0>         0.4364
     49 H22         0.0442   -4.8963    1.8085 H         1 <0>         0.4323
@<TRIPOS>BOND
     1    1    6 ar
     2    1    2 ar
     3    1   30 1
     4    2    3 ar
     5    2   31 1
     6    3    4 ar
     7    3   16 1
     8    4    5 ar
     9    4   15 1
    10    5    6 ar
    11    5    7 1
    12    6   32 1
    13    7    8 1
    14    8    9 1
    15    8   33 1
    16    8   34 1
    17    9   10 1
    18    9   14 1
    19    9   11 1
    20   11   12 1
    21   11   35 1
    22   11   36 1
    23   12   13 1
    24   12   37 1
    25   12   38 1
    26   13   14 1
    27   13   39 1
    28   13   40 1
    29   14   41 1
    30   14   49 1
    31   15   42 1
    32   16   25 2
    33   16   17 1
    34   17   18 1
    35   17   19 1
    36   19   24 ar
    37   19   20 ar
    38   20   21 ar
    39   20   43 1
    40   21   22 ar
    41   21   27 1
    42   22   23 ar
    43   22   26 1
    44   23   24 ar
    45   23   44 1
    46   24   25 1
    47   27   28 2
    48   27   29 1
    49   28   45 1
    50   28   48 1
    51   29   46 1
    52   29   47 1
@<TRIPOS>MOLECULE
CHEMBL182959
   51    55     0     0     0
SMALL
USER_CHARGES

@<TRIPOS>ATOM
      1 C1          4.1677   -6.4291    3.2608 C.ar      1 <0>        -0.1222
      2 C2          4.0286   -6.4974    1.8872 C.ar      1 <0>        -0.1163
      3 C3          4.2658   -5.3777    1.1120 C.ar      1 <0>        -0.1100
      4 C4          4.6417   -4.1897    1.7104 C.ar      1 <0>        -0.0528
      5 C5          4.7799   -4.1212    3.0841 C.ar      1 <0>        -0.1149
      6 C6          4.5440   -5.2412    3.8592 C.ar      1 <0>        -0.1180
      7 C7          4.9013   -2.9693    0.8652 C.3       1 <0>        -0.0986
      8 C8          5.3917   -1.7075    1.5781 C.3       1 <0>        -0.1644
      9 C9          3.9608   -1.7754    1.0407 C.3       1 <0>        -0.1194
     10 C10         2.8457   -1.9097    2.0455 C.ar      1 <0>         0.0289
     11 C11         3.0263   -1.4427    3.3129 C.ar      1 <0>        -0.1430
     12 C12         1.9962   -1.5617    4.2591 C.ar      1 <0>         0.0145
     13 C13         2.1617   -1.0860    5.5736 C.ar      1 <0>        -0.0803
     14 C14         1.1530   -1.2111    6.4729 C.ar      1 <0>        -0.0931
     15 C15        -0.0652   -1.8132    6.1105 C.ar      1 <0>        -0.1664
     16 C16        -0.2580   -2.2905    4.8242 C.ar      1 <0>        -0.0136
     17 C17         0.7718   -2.1700    3.8829 C.ar      1 <0>        -0.0878
     18 C18         0.6122   -2.6447    2.5619 C.ar      1 <0>         0.1974
     19 C19         1.6480   -2.5031    1.6620 C.ar      1 <0>        -0.1118
     20 N1         -0.5819   -3.2454    2.1704 N.pl3     1 <0>        -0.6327
     21 C20        -0.9579   -3.2352    0.8369 C.ar      1 <0>         0.5446
     22 N2         -0.2302   -2.5527   -0.0349 N.ar      1 <0>        -0.5497
     23 C21        -0.5612   -2.5227   -1.3151 C.ar      1 <0>         0.1875
     24 C22        -1.6838   -3.2162   -1.7398 C.ar      1 <0>        -0.2626
     25 C23        -2.4223   -3.9198   -0.8011 C.ar      1 <0>         0.1925
     26 N3         -2.0334   -3.9126    0.4630 N.ar      1 <0>        -0.5568
     27 C24        -1.1476   -1.9380    7.1093 C.cat     1 <0>         0.6022
     28 N4         -0.8500   -2.0642    8.4018 N.pl3     1 <0>        -0.7593
     29 N5         -2.4207   -1.9244    6.7171 N.pl3     1 <0>        -0.7641
     30 H1          3.9779   -7.3027    3.8668 H         1 <0>         0.1203
     31 H2          3.7349   -7.4256    1.4196 H         1 <0>         0.1220
     32 H3          4.1579   -5.4312    0.0387 H         1 <0>         0.1211
     33 H4          5.0739   -3.1931    3.5517 H         1 <0>         0.1206
     34 H5          4.6524   -5.1878    4.9325 H         1 <0>         0.1193
     35 H6          5.2862   -3.1640   -0.1358 H         1 <0>         0.1218
     36 H7          5.5265   -1.7600    2.6585 H         1 <0>         0.1032
     37 H8          6.0995   -1.0718    1.0462 H         1 <0>         0.1095
     38 H9          3.7273   -1.1843    0.1551 H         1 <0>         0.1299
     39 H10         3.9626   -0.9810    3.5896 H         1 <0>         0.1397
     40 H11         3.0917   -0.6217    5.8667 H         1 <0>         0.1489
     41 H12         1.2876   -0.8440    7.4796 H         1 <0>         0.1362
     42 H13        -1.1951   -2.7519    4.5497 H         1 <0>         0.1324
     43 H14         1.5290   -2.8606    0.6499 H         1 <0>         0.1621
     44 H15        -1.1503   -3.6710    2.8313 H         1 <0>         0.4204
     45 H16         0.0357   -1.9643   -2.0210 H         1 <0>         0.1766
     46 H17        -1.9769   -3.2082   -2.7792 H         1 <0>         0.1545
     47 H18        -3.3025   -4.4702   -1.0991 H         1 <0>         0.1766
     48 H19        -1.5603   -2.1461    9.0572 H         1 <0>         0.4319
     49 H20        -2.6374   -1.8325    5.7761 H         1 <0>         0.4440
     50 H21        -3.1310   -2.0063    7.3726 H         1 <0>         0.4324
     51 H22         0.0770   -2.0741    8.6873 H         1 <0>         0.4466
@<TRIPOS>BOND
     1    1    6 ar
     2    1    2 ar
     3    1   30 1
     4    2    3 ar
     5    2   31 1
     6    3    4 ar
     7    3   32 1
     8    4    5 ar
     9    4    7 1
    10    5    6 ar
    11    5   33 1
    12    6   34 1
    13    7    9 1
    14    7    8 1
    15    7   35 1
    16    8    9 1
    17    8   36 1
    18    8   37 1
    19    9   10 1
    20    9   38 1
    21   10   19 ar
    22   10   11 ar
    23   11   12 ar
    24   11   39 1
    25   12   17 ar
    26   12   13 ar
    27   13   14 ar
    28   13   40 1
    29   14   15 ar
    30   14   41 1
    31   15   16 ar
    32   15   27 1
    33   16   17 ar
    34   16   42 1
    35   17   18 ar
    36   18   19 ar
    37   18   20 1
    38   19   43 1
    39   20   21 1
    40   20   44 1
    41   21   26 ar
    42   21   22 ar
    43   22   23 ar
    44   23   24 ar
    45   23   45 1
    46   24   25 ar
    47   24   46 1
    48   25   26 ar
    49   25   47 1
    50   27   28 2
    51   27   29 1
    52   28   48 1
    53   28   51 1
    54   29   49 1
    55   29   50 1
@<TRIPOS>MOLECULE
CHEMBL182959__1
   51    55     0     0     0
SMALL
USER_CHARGES

@<TRIPOS>ATOM
      1 C1         -0.0796    1.2408    0.0025 C.ar      1 <0>        -0.1192
      2 C2          1.0967    1.9668   -0.0016 C.ar      1 <0>        -0.1163
      3 C3          2.3136    1.3111   -0.0159 C.ar      1 <0>        -0.1110
      4 C4          2.3541   -0.0707   -0.0257 C.ar      1 <0>        -0.0602
      5 C5          1.1777   -0.7967   -0.0206 C.ar      1 <0>        -0.1197
      6 C6         -0.0391   -0.1410   -0.0077 C.ar      1 <0>        -0.1153
      7 C7          3.6806   -0.7855   -0.0423 C.3       1 <0>        -0.0864
      8 C8          3.6642   -2.3004   -0.2559 C.3       1 <0>        -0.1626
      9 C9          3.9910   -1.7260    1.1240 C.3       1 <0>        -0.1212
     10 C10         5.4217   -1.8073    1.5905 C.ar      1 <0>         0.0237
     11 C11         5.7264   -1.4776    2.8771 C.ar      1 <0>        -0.1391
     12 C12         7.0550   -1.5484    3.3250 C.ar      1 <0>         0.0139
     13 C13         7.3916   -1.2124    4.6499 C.ar      1 <0>        -0.0795
     14 C14         8.6823   -1.2878    5.0623 C.ar      1 <0>        -0.0924
     15 C15         9.6978   -1.6993    4.1808 C.ar      1 <0>        -0.1659
     16 C16         9.3975   -2.0369    2.8711 C.ar      1 <0>        -0.0136
     17 C17         8.0710   -1.9652    2.4279 C.ar      1 <0>        -0.0905
     18 C18         7.7262   -2.3014    1.0998 C.ar      1 <0>         0.1998
     19 C19         6.4076   -2.2229    0.7023 C.ar      1 <0>        -0.1296
     20 N1          8.7078   -2.7134    0.2016 N.pl3     1 <0>        -0.6327
     21 C20         8.5117   -2.5529   -1.1605 C.ar      1 <0>         0.5438
     22 N2          7.4432   -1.8958   -1.5871 N.ar      1 <0>        -0.5511
     23 C21         7.2265   -1.7245   -2.8806 C.ar      1 <0>         0.1871
     24 C22         8.1333   -2.2420   -3.7924 C.ar      1 <0>        -0.2613
     25 C23         9.2403   -2.9239   -3.3118 C.ar      1 <0>         0.1932
     26 N3          9.4000   -3.0554   -2.0054 N.ar      1 <0>        -0.5561
     27 C24        11.0960   -1.7718    4.6550 C.cat     1 <0>         0.6026
     28 N4         11.5181   -0.9478    5.6129 N.pl3     1 <0>        -0.7589
     29 N5         11.9340   -2.6612    4.1244 N.pl3     1 <0>        -0.7639
     30 H1         -1.0303    1.7530    0.0183 H         1 <0>         0.1238
     31 H2          1.0651    3.0463    0.0061 H         1 <0>         0.1240
     32 H3          3.2326    1.8783   -0.0198 H         1 <0>         0.1210
     33 H4          1.2094   -1.8762   -0.0286 H         1 <0>         0.1230
     34 H5         -0.9582   -0.7082   -0.0042 H         1 <0>         0.1241
     35 H6          4.5112   -0.2253   -0.4719 H         1 <0>         0.1187
     36 H7          2.6938   -2.7800   -0.3845 H         1 <0>         0.1080
     37 H8          4.4839   -2.7372   -0.8263 H         1 <0>         0.1035
     38 H9          3.2357   -1.8276    1.9032 H         1 <0>         0.1238
     39 H10         4.9453   -1.1613    3.5526 H         1 <0>         0.1411
     40 H11         6.6226   -0.8943    5.3382 H         1 <0>         0.1501
     41 H12         8.9328   -1.0280    6.0802 H         1 <0>         0.1369
     42 H13        10.1802   -2.3528    2.1973 H         1 <0>         0.1332
     43 H14         6.1387   -2.4831   -0.3108 H         1 <0>         0.1662
     44 H15         9.5287   -3.1126    0.5297 H         1 <0>         0.4206
     45 H16         6.3535   -1.1883   -3.2222 H         1 <0>         0.1770
     46 H17         7.9805   -2.1169   -4.8542 H         1 <0>         0.1550
     47 H18         9.9655   -3.3396   -3.9957 H         1 <0>         0.1772
     48 H19        12.4356   -0.9954    5.9241 H         1 <0>         0.4321
     49 H20        11.6267   -3.2612    3.4269 H         1 <0>         0.4439
     50 H21        12.8515   -2.7088    4.4355 H         1 <0>         0.4326
     51 H22        10.9079   -0.3002    5.9993 H         1 <0>         0.4467
@<TRIPOS>BOND
     1    1    6 ar
     2    1    2 ar
     3    1   30 1
     4    2    3 ar
     5    2   31 1
     6    3    4 ar
     7    3   32 1
     8    4    5 ar
     9    4    7 1
    10    5    6 ar
    11    5   33 1
    12    6   34 1
    13    7    9 1
    14    7    8 1
    15    7   35 1
    16    8    9 1
    17    8   36 1
    18    8   37 1
    19    9   10 1
    20    9   38 1
    21   10   19 ar
    22   10   11 ar
    23   11   12 ar
    24   11   39 1
    25   12   17 ar
    26   12   13 ar
    27   13   14 ar
    28   13   40 1
    29   14   15 ar
    30   14   41 1
    31   15   16 ar
    32   15   27 1
    33   16   17 ar
    34   16   42 1
    35   17   18 ar
    36   18   19 ar
    37   18   20 1
    38   19   43 1
    39   20   21 1
    40   20   44 1
    41   21   26 ar
    42   21   22 ar
    43   22   23 ar
    44   23   24 ar
    45   23   45 1
    46   24   25 ar
    47   24   46 1
    48   25   26 ar
    49   25   47 1
    50   27   28 2
    51   27   29 1
    52   28   48 1
    53   28   51 1
    54   29   49 1
    55   29   50 1
@<TRIPOS>MOLECULE
CHEMBL182959__2
   51    55     0     0     0
SMALL
USER_CHARGES

@<TRIPOS>ATOM
      1 C1         -0.5540   -0.1252    0.3791 C.ar      1 <0>        -0.1191
      2 C2          0.4956    0.7702    0.2911 C.ar      1 <0>        -0.1163
      3 C3          1.7962    0.3064    0.2273 C.ar      1 <0>        -0.1108
      4 C4          2.0474   -1.0527    0.2520 C.ar      1 <0>        -0.0604
      5 C5          0.9979   -1.9480    0.3409 C.ar      1 <0>        -0.1197
      6 C6         -0.3028   -1.4843    0.4033 C.ar      1 <0>        -0.1153
      7 C7          3.4653   -1.5583    0.1814 C.3       1 <0>        -0.0862
      8 C8          3.6948   -3.0528    0.4152 C.3       1 <0>        -0.1631
      9 C9          3.8331   -2.4686   -0.9921 C.3       1 <0>        -0.1213
     10 C10         5.2234   -2.3439   -1.5602 C.ar      1 <0>         0.0207
     11 C11         5.3839   -1.9919   -2.8669 C.ar      1 <0>        -0.1338
     12 C12         6.6732   -1.8725   -3.4093 C.ar      1 <0>         0.0118
     13 C13         6.8615   -1.5100   -4.7564 C.ar      1 <0>        -0.0792
     14 C14         8.1166   -1.4003   -5.2608 C.ar      1 <0>        -0.0927
     15 C15         9.2418   -1.6448   -4.4534 C.ar      1 <0>        -0.1650
     16 C16         9.0884   -2.0028   -3.1239 C.ar      1 <0>        -0.0130
     17 C17         7.8008   -2.1208   -2.5862 C.ar      1 <0>        -0.0870
     18 C18         7.6046   -2.4837   -1.2350 C.ar      1 <0>         0.1987
     19 C19         6.3207   -2.5846   -0.7407 C.ar      1 <0>        -0.1137
     20 N1          8.6977   -2.7321   -0.4081 N.pl3     1 <0>        -0.6381
     21 C20         8.6372   -2.4055    0.9370 C.ar      1 <0>         0.5445
     22 N2          7.5782   -1.7560    1.3977 N.ar      1 <0>        -0.5519
     23 C21         7.4889   -1.4296    2.6764 C.ar      1 <0>         0.1887
     24 C22         8.5198   -1.7752    3.5361 C.ar      1 <0>        -0.2628
     25 C23         9.6129   -2.4543    3.0207 C.ar      1 <0>         0.1923
     26 N3          9.6371   -2.7549    1.7329 N.ar      1 <0>        -0.5568
     27 C24        10.5980   -1.5194   -5.0277 C.cat     1 <0>         0.6024
     28 N4         10.7999   -1.7709   -6.3203 N.pl3     1 <0>        -0.7588
     29 N5         11.6184   -1.1549   -4.2527 N.pl3     1 <0>        -0.7637
     30 H1         -1.5699    0.2373    0.4335 H         1 <0>         0.1239
     31 H2          0.2993    1.8320    0.2719 H         1 <0>         0.1241
     32 H3          2.6161    1.0059    0.1578 H         1 <0>         0.1212
     33 H4          1.1942   -3.0099    0.3598 H         1 <0>         0.1229
     34 H5         -1.1227   -2.1838    0.4724 H         1 <0>         0.1241
     35 H6          4.2287   -0.8690    0.5422 H         1 <0>         0.1191
     36 H7          4.6094   -3.3470    0.9301 H         1 <0>         0.1024
     37 H8          2.8203   -3.6703    0.6201 H         1 <0>         0.1085
     38 H9          3.0496   -2.7017   -1.7130 H         1 <0>         0.1243
     39 H10         4.5186   -1.8050   -3.4856 H         1 <0>         0.1419
     40 H11         6.0069   -1.3195   -5.3887 H         1 <0>         0.1503
     41 H12         8.2530   -1.1221   -6.2954 H         1 <0>         0.1370
     42 H13         9.9551   -2.1894   -2.5070 H         1 <0>         0.1343
     43 H14         6.1660   -2.8575    0.2927 H         1 <0>         0.1515
     44 H15         9.5012   -3.1338   -0.7740 H         1 <0>         0.4220
     45 H16         6.6234   -0.8999    3.0460 H         1 <0>         0.1757
     46 H17         8.4727   -1.5207    4.5846 H         1 <0>         0.1543
     47 H18        10.4330   -2.7378    3.6637 H         1 <0>         0.1765
     48 H19        11.6899   -1.6886   -6.6972 H         1 <0>         0.4321
     49 H20        11.4714   -0.9717   -3.3115 H         1 <0>         0.4442
     50 H21        12.5084   -1.0726   -4.6295 H         1 <0>         0.4325
     51 H22        10.0569   -2.0364   -6.8846 H         1 <0>         0.4468
@<TRIPOS>BOND
     1    1    6 ar
     2    1    2 ar
     3    1   30 1
     4    2    3 ar
     5    2   31 1
     6    3    4 ar
     7    3   32 1
     8    4    5 ar
     9    4    7 1
    10    5    6 ar
    11    5   33 1
    12    6   34 1
    13    7    9 1
    14    7    8 1
    15    7   35 1
    16    8    9 1
    17    8   36 1
    18    8   37 1
    19    9   10 1
    20    9   38 1
    21   10   19 ar
    22   10   11 ar
    23   11   12 ar
    24   11   39 1
    25   12   17 ar
    26   12   13 ar
    27   13   14 ar
    28   13   40 1
    29   14   15 ar
    30   14   41 1
    31   15   16 ar
    32   15   27 1
    33   16   17 ar
    34   16   42 1
    35   17   18 ar
    36   18   19 ar
    37   18   20 1
    38   19   43 1
    39   20   21 1
    40   20   44 1
    41   21   26 ar
    42   21   22 ar
    43   22   23 ar
    44   23   24 ar
    45   23   45 1
    46   24   25 ar
    47   24   46 1
    48   25   26 ar
    49   25   47 1
    50   27   28 2
    51   27   29 1
    52   28   48 1
    53   28   51 1
    54   29   49 1
    55   29   50 1
@<TRIPOS>MOLECULE
CHEMBL182959__3
   51    55     0     0     0
SMALL
USER_CHARGES

@<TRIPOS>ATOM
      1 C1          1.3594    2.7421   -1.3567 C.ar      1 <0>        -0.1212
      2 C2          2.6798    2.8397   -1.7539 C.ar      1 <0>        -0.1160
      3 C3          3.5693    1.8257   -1.4515 C.ar      1 <0>        -0.1087
      4 C4          3.1384    0.7142   -0.7516 C.ar      1 <0>        -0.0534
      5 C5          1.8182    0.6170   -0.3536 C.ar      1 <0>        -0.1137
      6 C6          0.9284    1.6304   -0.6571 C.ar      1 <0>        -0.1184
      7 C7          4.1079   -0.3918   -0.4228 C.3       1 <0>        -0.0980
      8 C8          3.5675   -1.5998    0.3451 C.3       1 <0>        -0.1636
      9 C9          3.9203   -1.7313   -1.1379 C.3       1 <0>        -0.1189
     10 C10         2.7803   -1.8438   -2.1170 C.ar      1 <0>         0.0261
     11 C11         3.0167   -1.6519   -3.4453 C.ar      1 <0>        -0.1367
     12 C12         1.9639   -1.7532   -4.3683 C.ar      1 <0>         0.0136
     13 C13         2.1862   -1.5588   -5.7447 C.ar      1 <0>        -0.0789
     14 C14         1.1543   -1.6613   -6.6201 C.ar      1 <0>        -0.0939
     15 C15        -0.1444   -1.9610   -6.1716 C.ar      1 <0>        -0.1662
     16 C16        -0.3943   -2.1582   -4.8232 C.ar      1 <0>        -0.0144
     17 C17         0.6584   -2.0564   -3.9053 C.ar      1 <0>        -0.0885
     18 C18         0.4424   -2.2508   -2.5228 C.ar      1 <0>         0.1959
     19 C19         1.5060   -2.1472   -1.6503 C.ar      1 <0>        -0.1233
     20 N1         -0.8316   -2.5496   -2.0455 N.pl3     1 <0>        -0.6317
     21 C20        -0.9815   -3.2071   -0.8352 C.ar      1 <0>         0.5441
     22 N2          0.0964   -3.6301   -0.1913 N.ar      1 <0>        -0.5507
     23 C21        -0.0116   -4.2608    0.9663 C.ar      1 <0>         0.1867
     24 C22        -1.2710   -4.4767    1.5037 C.ar      1 <0>        -0.2622
     25 C23        -2.3772   -4.0209    0.8037 C.ar      1 <0>         0.1933
     26 N3         -2.1989   -3.3930   -0.3467 N.ar      1 <0>        -0.5564
     27 C24        -1.2511   -2.0660   -7.1458 C.cat     1 <0>         0.6023
     28 N4         -1.2230   -1.3454   -8.2660 N.pl3     1 <0>        -0.7592
     29 N5         -2.2766   -2.8812   -6.9036 N.pl3     1 <0>        -0.7643
     30 H1          0.6655    3.5364   -1.5890 H         1 <0>         0.1206
     31 H2          3.0164    3.7081   -2.3007 H         1 <0>         0.1234
     32 H3          4.6008    1.9016   -1.7625 H         1 <0>         0.1234
     33 H4          1.4815   -0.2515    0.1930 H         1 <0>         0.1163
     34 H5         -0.1032    1.5543   -0.3465 H         1 <0>         0.1169
     35 H6          5.1283   -0.0742   -0.2086 H         1 <0>         0.1237
     36 H7          4.2325   -2.0771    1.0649 H         1 <0>         0.1095
     37 H8          2.5109   -1.5946    0.6125 H         1 <0>         0.1016
     38 H9          4.8174   -2.2952   -1.3937 H         1 <0>         0.1293
     39 H10         4.0146   -1.4213   -3.7880 H         1 <0>         0.1394
     40 H11         3.1781   -1.3277   -6.1040 H         1 <0>         0.1491
     41 H12         1.3326   -1.5105   -7.6746 H         1 <0>         0.1362
     42 H13        -1.3930   -2.3885   -4.4827 H         1 <0>         0.1323
     43 H14         1.3464   -2.2993   -0.5931 H         1 <0>         0.1701
     44 H15        -1.6139   -2.2973   -2.5606 H         1 <0>         0.4204
     45 H16         0.8707   -4.6036    1.4864 H         1 <0>         0.1772
     46 H17        -1.3878   -4.9892    2.4472 H         1 <0>         0.1548
     47 H18        -3.3723   -4.1735    1.1947 H         1 <0>         0.1768
     48 H19        -1.9493   -1.4143   -8.9053 H         1 <0>         0.4319
     49 H20        -2.2971   -3.4058   -6.0880 H         1 <0>         0.4439
     50 H21        -3.0029   -2.9501   -7.5430 H         1 <0>         0.4324
     51 H22        -0.4763   -0.7519   -8.4423 H         1 <0>         0.4466
@<TRIPOS>BOND
     1    1    6 ar
     2    1    2 ar
     3    1   30 1
     4    2    3 ar
     5    2   31 1
     6    3    4 ar
     7    3   32 1
     8    4    5 ar
     9    4    7 1
    10    5    6 ar
    11    5   33 1
    12    6   34 1
    13    7    9 1
    14    7    8 1
    15    7   35 1
    16    8    9 1
    17    8   36 1
    18    8   37 1
    19    9   10 1
    20    9   38 1
    21   10   19 ar
    22   10   11 ar
    23   11   12 ar
    24   11   39 1
    25   12   17 ar
    26   12   13 ar
    27   13   14 ar
    28   13   40 1
    29   14   15 ar
    30   14   41 1
    31   15   16 ar
    32   15   27 1
    33   16   17 ar
    34   16   42 1
    35   17   18 ar
    36   18   19 ar
    37   18   20 1
    38   19   43 1
    39   20   21 1
    40   20   44 1
    41   21   26 ar
    42   21   22 ar
    43   22   23 ar
    44   23   24 ar
    45   23   45 1
    46   24   25 ar
    47   24   46 1
    48   25   26 ar
    49   25   47 1
    50   27   28 2
    51   27   29 1
    52   28   48 1
    53   28   51 1
    54   29   49 1
    55   29   50 1
@<TRIPOS>MOLECULE
CHEMBL170410
   43    46     0     0     0
SMALL
USER_CHARGES

@<TRIPOS>ATOM
      1 C1          0.9928    1.6926    0.5566 C.3       1 <0>        -0.2206
      2 S1          0.6799   -0.0839    0.3652 S.3       1 <0>         0.1722
      3 C2          1.3792   -0.4732   -1.2046 C.2       1 <0>        -0.0857
      4 C3          1.4213   -1.7006   -1.8637 C.2       1 <0>        -0.0801
      5 C4          2.0298   -1.7585   -3.0981 C.2       1 <0>         0.0211
      6 C5          2.5703   -0.5994   -3.6269 C.2       1 <0>        -0.3231
      7 S2          2.2077    0.6050   -2.3608 S.3       1 <0>         0.1788
      8 C6          3.2593   -0.4086   -4.9028 C.cat     1 <0>         0.6519
      9 N1          3.7165    0.8032   -5.2420 N.pl3     1 <0>        -0.7727
     10 N2          3.4328   -1.4457   -5.7316 N.pl3     1 <0>        -0.7664
     11 C7          0.8261   -2.9142   -1.2509 C.2       1 <0>         0.1525
     12 C8          0.8623   -4.1268   -1.8792 C.2       1 <0>        -0.2739
     13 S3          0.0166   -5.1478   -0.6836 S.3       1 <0>         0.1596
     14 C9         -0.2909   -3.9597    0.4674 C.2       1 <0>         0.3163
     15 N3          0.2366   -2.8777   -0.0620 N.2       1 <0>        -0.5754
     16 N4         -0.9402   -4.0911    1.6851 N.pl3     1 <0>        -0.6086
     17 C10        -1.3124   -5.3536    2.1437 C.ar      1 <0>         0.1572
     18 C11        -0.4996   -6.4442    1.9162 C.ar      1 <0>        -0.1495
     19 C12        -0.8621   -7.7085    2.3698 C.ar      1 <0>        -0.0890
     20 C13        -2.0261   -7.9050    3.0488 C.ar      1 <0>        -0.1094
     21 C14        -2.8828   -6.8202    3.3016 C.ar      1 <0>        -0.0296
     22 C15        -2.5220   -5.5267    2.8504 C.ar      1 <0>        -0.0595
     23 C16        -3.3762   -4.4434    3.1084 C.ar      1 <0>        -0.1120
     24 C17        -4.5356   -4.6473    3.7928 C.ar      1 <0>        -0.1059
     25 C18        -4.8886   -5.9180    4.2424 C.ar      1 <0>        -0.1075
     26 C19        -4.0907   -6.9937    3.9995 C.ar      1 <0>        -0.1023
     27 H1          2.0666    1.8776    0.5280 H         1 <0>         0.0955
     28 H2          0.5088    2.2362   -0.2548 H         1 <0>         0.0954
     29 H3          0.5910    2.0315    1.5114 H         1 <0>         0.1307
     30 H4          2.0843   -2.6899   -3.6422 H         1 <0>         0.1554
     31 H5          3.5908    1.5546   -4.6415 H         1 <0>         0.4408
     32 H6          3.1015   -2.3236   -5.4858 H         1 <0>         0.4432
     33 H7          3.8897   -1.3191   -6.5778 H         1 <0>         0.4344
     34 H8          1.2857   -4.3942   -2.8361 H         1 <0>         0.1940
     35 H9         -1.1355   -3.3045    2.2180 H         1 <0>         0.4251
     36 H10         0.4287   -6.3154    1.3795 H         1 <0>         0.1292
     37 H11        -0.2097   -8.5481    2.1801 H         1 <0>         0.1340
     38 H12        -2.2908   -8.8940    3.3925 H         1 <0>         0.1353
     39 H13        -3.1151   -3.4529    2.7662 H         1 <0>         0.1221
     40 H14        -5.1909   -3.8118    3.9903 H         1 <0>         0.1276
     41 H15        -5.8138   -6.0531    4.7830 H         1 <0>         0.1293
     42 H16        -4.3772   -7.9729    4.3536 H         1 <0>         0.1348
     43 H17         4.1735    0.9298   -6.0882 H         1 <0>         0.4348
@<TRIPOS>BOND
     1    1    2 1
     2    1   27 1
     3    1   28 1
     4    1   29 1
     5    2    3 1
     6    3    7 1
     7    3    4 2
     8    4    5 1
     9    4   11 1
    10    5    6 2
    11    5   30 1
    12    6    7 1
    13    6    8 1
    14    8    9 2
    15    8   10 1
    16    9   31 1
    17    9   43 1
    18   10   32 1
    19   10   33 1
    20   11   15 1
    21   11   12 2
    22   12   13 1
    23   12   34 1
    24   13   14 1
    25   14   15 2
    26   14   16 1
    27   16   17 1
    28   16   35 1
    29   17   22 ar
    30   17   18 ar
    31   18   19 ar
    32   18   36 1
    33   19   20 ar
    34   19   37 1
    35   20   21 ar
    36   20   38 1
    37   21   26 ar
    38   21   22 ar
    39   22   23 ar
    40   23   24 ar
    41   23   39 1
    42   24   25 ar
    43   24   40 1
    44   25   26 ar
    45   25   41 1
    46   26   42 1
@<TRIPOS>MOLECULE
CHEMBL110026
   54    57     0     0     0
SMALL
USER_CHARGES

@<TRIPOS>ATOM
      1 C1          0.1397    1.3792   -0.6148 C.ar      1 <0>        -0.0979
      2 C2          1.1692    2.0860   -0.0203 C.ar      1 <0>        -0.1240
      3 C3          2.2211    1.4131    0.5735 C.ar      1 <0>        -0.0575
      4 C4          2.2469    0.0321    0.5746 C.ar      1 <0>        -0.1355
      5 C5          1.2145   -0.6806   -0.0211 C.ar      1 <0>         0.1344
      6 C6          0.1592   -0.0015   -0.6168 C.ar      1 <0>        -0.1226
      7 N1          1.2377   -2.0788   -0.0222 N.am      1 <0>        -0.6624
      8 C7          0.0871   -2.7720    0.0873 C.2       1 <0>         0.5518
      9 O1         -0.9772   -2.1848    0.1019 O.2       1 <0>        -0.5029
     10 C8          0.1193   -4.2463    0.1895 C.ar      1 <0>        -0.0958
     11 C9          1.3538   -4.9195    0.1778 C.ar      1 <0>        -0.0824
     12 C10         1.4089   -6.2727    0.2705 C.ar      1 <0>        -0.0931
     13 C11         0.2212   -7.0204    0.3804 C.ar      1 <0>        -0.0496
     14 C12         0.2571   -8.4199    0.4778 C.ar      1 <0>        -0.0178
     15 C13        -0.9280   -9.1266    0.5851 C.ar      1 <0>        -0.1425
     16 C14        -2.1622   -8.4541    0.5966 C.ar      1 <0>        -0.0972
     17 C15        -2.2179   -7.1008    0.5031 C.ar      1 <0>        -0.0669
     18 C16        -1.0303   -6.3529    0.3937 C.ar      1 <0>        -0.0222
     19 C17        -1.0663   -4.9531    0.3017 C.ar      1 <0>        -0.0416
     20 C18        -0.8955  -10.6025    0.6881 C.cat     1 <0>         0.5994
     21 N2         -2.0324  -11.2878    0.7915 N.pl3     1 <0>        -0.7588
     22 N3          0.2705  -11.2451    0.6773 N.pl3     1 <0>        -0.7629
     23 C19         3.3409    2.1873    1.2197 C.3       1 <0>        -0.0753
     24 C20         3.0051    2.4375    2.6912 C.3       1 <0>        -0.0868
     25 C21         3.0753    1.1157    3.4955 C.3       1 <0>        -0.1174
     26 C22         3.3220    1.6089    4.9429 C.3       1 <0>        -0.1270
     27 C23         4.2778    2.8083    4.7761 C.3       1 <0>        -0.1263
     28 C24         4.0764    3.3351    3.3444 C.3       1 <0>        -0.1222
     29 H1         -0.6826    1.9077   -1.0741 H         1 <0>         0.1281
     30 H2          1.1516    3.1658   -0.0201 H         1 <0>         0.1254
     31 H3          3.0691   -0.4929    1.0379 H         1 <0>         0.1243
     32 H4         -0.6450   -0.5528   -1.0813 H         1 <0>         0.1369
     33 H5          2.0820   -2.5498   -0.1017 H         1 <0>         0.4099
     34 H6          2.2694   -4.3530    0.0937 H         1 <0>         0.1397
     35 H7          2.3644   -6.7760    0.2594 H         1 <0>         0.1470
     36 H8          1.2027   -8.9416    0.4687 H         1 <0>         0.1448
     37 H9         -3.0776   -9.0210    0.6806 H         1 <0>         0.1385
     38 H10        -3.1736   -6.5979    0.5125 H         1 <0>         0.1542
     39 H11        -2.0117   -4.4312    0.3147 H         1 <0>         0.1577
     40 H12        -2.8819  -10.8196    0.7994 H         1 <0>         0.4454
     41 H13         1.0987  -10.7458    0.6019 H         1 <0>         0.4434
     42 H14         0.2918  -12.2125    0.7448 H         1 <0>         0.4345
     43 H15         4.2658    1.6147    1.1503 H         1 <0>         0.0740
     44 H16         3.4653    3.1417    0.7080 H         1 <0>         0.0767
     45 H17         2.0185    2.8914    2.7846 H         1 <0>         0.0765
     46 H18         2.1329    0.5720    3.4281 H         1 <0>         0.0632
     47 H19         3.9045    0.4976    3.1514 H         1 <0>         0.0649
     48 H20         2.3863    1.9279    5.4020 H         1 <0>         0.0645
     49 H21         3.7925    0.8260    5.5378 H         1 <0>         0.0632
     50 H22         4.0305    3.5861    5.4984 H         1 <0>         0.0632
     51 H23         5.3098    2.4852    4.9133 H         1 <0>         0.0628
     52 H24         5.0105    3.2677    2.7869 H         1 <0>         0.0655
     53 H25         3.7312    4.3686    3.3720 H         1 <0>         0.0645
     54 H26        -2.0111  -12.2552    0.8590 H         1 <0>         0.4340
@<TRIPOS>BOND
     1    1    6 ar
     2    1    2 ar
     3    1   29 1
     4    2    3 ar
     5    2   30 1
     6    3    4 ar
     7    3   23 1
     8    4    5 ar
     9    4   31 1
    10    5    6 ar
    11    5    7 1
    12    6   32 1
    13    7    8 am
    14    7   33 1
    15    8    9 2
    16    8   10 1
    17   10   19 ar
    18   10   11 ar
    19   11   12 ar
    20   11   34 1
    21   12   13 ar
    22   12   35 1
    23   13   18 ar
    24   13   14 ar
    25   14   15 ar
    26   14   36 1
    27   15   16 ar
    28   15   20 1
    29   16   17 ar
    30   16   37 1
    31   17   18 ar
    32   17   38 1
    33   18   19 ar
    34   19   39 1
    35   20   21 2
    36   20   22 1
    37   21   40 1
    38   21   54 1
    39   22   41 1
    40   22   42 1
    41   23   24 1
    42   23   43 1
    43   23   44 1
    44   24   28 1
    45   24   25 1
    46   24   45 1
    47   25   26 1
    48   25   46 1
    49   25   47 1
    50   26   27 1
    51   26   48 1
    52   26   49 1
    53   27   28 1
    54   27   50 1
    55   27   51 1
    56   28   52 1
    57   28   53 1
@<TRIPOS>MOLECULE
CHEMBL110027
   49    52     0     0     0
SMALL
USER_CHARGES

@<TRIPOS>ATOM
      1 C1         -1.8324   -5.6306   -1.1988 C.ar      1 <0>        -0.1504
      2 C2         -0.6903   -5.1024   -1.7720 C.ar      1 <0>        -0.0824
      3 C3          0.3608   -4.6966   -0.9729 C.ar      1 <0>        -0.1941
      4 C4          0.2698   -4.8194    0.4062 C.ar      1 <0>         0.1201
      5 C5         -0.8775   -5.3497    0.9789 C.ar      1 <0>        -0.1440
      6 C6         -1.9257   -5.7540    0.1752 C.ar      1 <0>        -0.0819
      7 O1          1.3025   -4.4213    1.1946 O.3       1 <0>        -0.2579
      8 C7          2.4435   -4.0017    0.5876 C.ar      1 <0>         0.1062
      9 C8          2.4956   -2.7455   -0.0012 C.ar      1 <0>        -0.1412
     10 C9          3.6552   -2.3173   -0.6184 C.ar      1 <0>        -0.0837
     11 C10         4.7666   -3.1375   -0.6517 C.ar      1 <0>        -0.1381
     12 C11         4.7203   -4.3956   -0.0646 C.ar      1 <0>         0.1497
     13 C12         3.5580   -4.8253    0.5609 C.ar      1 <0>        -0.1222
     14 N1          5.8450   -5.2259   -0.0988 N.am      1 <0>        -0.6625
     15 C13         5.6944   -6.5600   -0.2163 C.2       1 <0>         0.5522
     16 O2          4.5814   -7.0488   -0.2123 O.2       1 <0>        -0.4994
     17 C14         6.8827   -7.4290   -0.3499 C.ar      1 <0>        -0.0969
     18 C15         8.1679   -6.8584   -0.3481 C.ar      1 <0>        -0.0824
     19 C16         9.2742   -7.6357   -0.4694 C.ar      1 <0>        -0.0927
     20 C17         9.1438   -9.0314   -0.5992 C.ar      1 <0>        -0.0489
     21 C18        10.2752   -9.8521   -0.7252 C.ar      1 <0>        -0.0181
     22 C19        10.1140  -11.2209   -0.8508 C.ar      1 <0>        -0.1417
     23 C20         8.8296  -11.7917   -0.8529 C.ar      1 <0>        -0.0970
     24 C21         7.7228  -11.0146   -0.7325 C.ar      1 <0>        -0.0667
     25 C22         7.8529   -9.6190   -0.6025 C.ar      1 <0>        -0.0225
     26 C23         6.7217   -8.7992   -0.4703 C.ar      1 <0>        -0.0401
     27 C24        11.3038  -12.0907   -0.9844 C.cat     1 <0>         0.5993
     28 N2         11.1550  -13.4083   -1.1055 N.pl3     1 <0>        -0.7585
     29 N3         12.5230  -11.5558   -0.9836 N.pl3     1 <0>        -0.7628
     30 H1         -2.6549   -5.9431   -1.8251 H         1 <0>         0.1267
     31 H2         -0.6199   -5.0074   -2.8456 H         1 <0>         0.1261
     32 H3          1.2527   -4.2845   -1.4211 H         1 <0>         0.1275
     33 H4         -0.9507   -5.4466    2.0521 H         1 <0>         0.1330
     34 H5         -2.8190   -6.1664    0.6205 H         1 <0>         0.1329
     35 H6          1.6283   -2.1023    0.0229 H         1 <0>         0.1360
     36 H7          3.6929   -1.3398   -1.0759 H         1 <0>         0.1397
     37 H8          5.6718   -2.8003   -1.1347 H         1 <0>         0.1337
     38 H9          3.5209   -5.8011    1.0222 H         1 <0>         0.1480
     39 H10         6.7336   -4.8416   -0.0379 H         1 <0>         0.4133
     40 H11         8.2762   -5.7884   -0.2493 H         1 <0>         0.1401
     41 H12        10.2548   -7.1831   -0.4667 H         1 <0>         0.1475
     42 H13        11.2644   -9.4186   -0.7246 H         1 <0>         0.1451
     43 H14         8.7217  -12.8618   -0.9518 H         1 <0>         0.1387
     44 H15         6.7423  -11.4674   -0.7361 H         1 <0>         0.1544
     45 H16         5.7327   -9.2332   -0.4664 H         1 <0>         0.1579
     46 H17        11.9349  -13.9784   -1.1932 H         1 <0>         0.4342
     47 H18        12.6314  -10.5959   -0.8953 H         1 <0>         0.4434
     48 H19        13.3029  -12.1259   -1.0712 H         1 <0>         0.4347
     49 H20        10.2668  -13.7980   -1.1062 H         1 <0>         0.4454
@<TRIPOS>BOND
     1    1    6 ar
     2    1    2 ar
     3    1   30 1
     4    2    3 ar
     5    2   31 1
     6    3    4 ar
     7    3   32 1
     8    4    5 ar
     9    4    7 1
    10    5    6 ar
    11    5   33 1
    12    6   34 1
    13    7    8 1
    14    8   13 ar
    15    8    9 ar
    16    9   10 ar
    17    9   35 1
    18   10   11 ar
    19   10   36 1
    20   11   12 ar
    21   11   37 1
    22   12   13 ar
    23   12   14 1
    24   13   38 1
    25   14   15 am
    26   14   39 1
    27   15   16 2
    28   15   17 1
    29   17   26 ar
    30   17   18 ar
    31   18   19 ar
    32   18   40 1
    33   19   20 ar
    34   19   41 1
    35   20   25 ar
    36   20   21 ar
    37   21   22 ar
    38   21   42 1
    39   22   23 ar
    40   22   27 1
    41   23   24 ar
    42   23   43 1
    43   24   25 ar
    44   24   44 1
    45   25   26 ar
    46   26   45 1
    47   27   28 2
    48   27   29 1
    49   28   46 1
    50   28   49 1
    51   29   47 1
    52   29   48 1
@<TRIPOS>MOLECULE
CHEMBL182303
   64    69     0     0     0
SMALL
USER_CHARGES

@<TRIPOS>ATOM
      1 C1          0.0888    0.1805   -0.4679 C.ar      1 <0>        -0.0904
      2 C2          1.1174    1.0429   -0.2412 C.ar      1 <0>        -0.0970
      3 C3          2.4406    0.6396   -0.4072 C.ar      1 <0>         0.0019
      4 C4          2.7433   -0.6284   -0.8004 C.ar      1 <0>        -0.1119
      5 C5          1.7095   -1.5476   -1.0435 C.ar      1 <0>        -0.0039
      6 C6          0.3625   -1.1372   -0.8751 C.ar      1 <0>        -0.0696
      7 C7         -0.6738   -2.0517   -1.1177 C.ar      1 <0>        -0.0099
      8 C8         -0.3647   -3.3402   -1.5177 C.ar      1 <0>        -0.1587
      9 C9          0.9748   -3.7354   -1.6808 C.ar      1 <0>        -0.0951
     10 C10         1.9904   -2.8644   -1.4518 C.ar      1 <0>        -0.0789
     11 C11        -1.4520   -4.3092   -1.7752 C.cat     1 <0>         0.5999
     12 N1         -1.1605   -5.5503   -2.1603 N.pl3     1 <0>        -0.7619
     13 N2         -2.7226   -3.9406   -1.6219 N.pl3     1 <0>        -0.7663
     14 C12         3.5537    1.6219   -0.1482 C.3       1 <0>        -0.1224
     15 C13         3.1611    3.0411    0.2674 C.3       1 <0>        -0.1653
     16 C14         3.7171    2.7805   -1.1340 C.3       1 <0>        -0.0957
     17 C15         2.7525    2.8521   -2.2897 C.ar      1 <0>        -0.0606
     18 C16         1.4809    3.3623   -2.0956 C.ar      1 <0>        -0.0999
     19 C17         0.5851    3.4336   -3.1493 C.ar      1 <0>        -0.1135
     20 C18         0.9606    2.9950   -4.3986 C.ar      1 <0>        -0.0661
     21 C19         2.2441    2.4786   -4.6013 C.ar      1 <0>        -0.1018
     22 C20         3.1429    2.4137   -3.5396 C.ar      1 <0>        -0.0708
     23 C21         2.6142    2.0156   -5.9525 C.2       1 <0>         0.2129
     24 N3          1.9321    2.4122   -6.9745 N.2       1 <0>        -0.5053
     25 C22         0.8026    3.3269   -6.8481 C.3       1 <0>         0.0380
     26 C23         0.0132    3.0579   -5.5679 C.3       1 <0>        -0.1092
     27 C24         3.7833    1.0831   -6.1389 C.3       1 <0>        -0.0391
     28 C25         4.0316    0.8690   -7.6334 C.3       1 <0>        -0.0996
     29 C26         5.2185   -0.0777   -7.8226 C.3       1 <0>        -0.1241
     30 C27         4.9100   -1.4214   -7.1592 C.3       1 <0>        -0.1217
     31 C28         4.6616   -1.2073   -5.6648 C.3       1 <0>        -0.1163
     32 C29         3.4747   -0.2606   -5.4755 C.3       1 <0>        -0.1040
     33 H1         -0.9320    0.5055   -0.3313 H         1 <0>         0.1375
     34 H2          0.9046    2.0545    0.0715 H         1 <0>         0.1359
     35 H3          3.7740   -0.9260   -0.9251 H         1 <0>         0.1408
     36 H4         -1.7041   -1.7527   -0.9930 H         1 <0>         0.1392
     37 H5          1.1985   -4.7448   -1.9928 H         1 <0>         0.1336
     38 H6          3.0142   -3.1826   -1.5820 H         1 <0>         0.1481
     39 H7         -0.2351   -5.8188   -2.2719 H         1 <0>         0.4446
     40 H8         -2.9349   -3.0367   -1.3415 H         1 <0>         0.4426
     41 H9         -3.4357   -4.5761   -1.7908 H         1 <0>         0.4331
     42 H10         4.4594    1.2015    0.2889 H         1 <0>         0.1277
     43 H11         2.0977    3.2642    0.3535 H         1 <0>         0.1038
     44 H12         3.8085    3.5546    0.9783 H         1 <0>         0.1115
     45 H13         4.7302    3.1227   -1.3451 H         1 <0>         0.1261
     46 H14         1.1850    3.7068   -1.1157 H         1 <0>         0.1249
     47 H15        -0.4059    3.8328   -2.9912 H         1 <0>         0.1267
     48 H16         4.1368    2.0195   -3.6918 H         1 <0>         0.1301
     49 H17         1.1732    4.3518   -6.8305 H         1 <0>         0.0797
     50 H18         0.1435    3.2012   -7.7071 H         1 <0>         0.0968
     51 H19        -0.5149    2.1088   -5.6592 H         1 <0>         0.0788
     52 H20        -0.7068    3.8608   -5.4094 H         1 <0>         0.0883
     53 H21         4.6718    1.5185   -5.6817 H         1 <0>         0.0894
     54 H22         3.1431    0.4336   -8.0906 H         1 <0>         0.0692
     55 H23         4.2515    1.8263   -8.1060 H         1 <0>         0.0673
     56 H24         5.3955   -0.2303   -8.8873 H         1 <0>         0.0652
     57 H25         6.1071    0.3577   -7.3654 H         1 <0>         0.0621
     58 H26         4.0214   -1.8568   -7.6165 H         1 <0>         0.0603
     59 H27         5.7555   -2.0959   -7.2940 H         1 <0>         0.0624
     60 H28         4.4417   -2.1646   -5.1922 H         1 <0>         0.0605
     61 H29         5.5501   -0.7719   -5.2075 H         1 <0>         0.0643
     62 H30         3.2977   -0.1081   -4.4109 H         1 <0>         0.0626
     63 H31         2.5861   -0.6960   -5.9328 H         1 <0>         0.0608
     64 H32        -1.8736   -6.1858   -2.3292 H         1 <0>         0.4326
@<TRIPOS>BOND
     1    1    6 ar
     2    1    2 ar
     3    1   33 1
     4    2    3 ar
     5    2   34 1
     6    3    4 ar
     7    3   14 1
     8    4    5 ar
     9    4   35 1
    10    5   10 ar
    11    5    6 ar
    12    6    7 ar
    13    7    8 ar
    14    7   36 1
    15    8    9 ar
    16    8   11 1
    17    9   10 ar
    18    9   37 1
    19   10   38 1
    20   11   12 2
    21   11   13 1
    22   12   39 1
    23   12   64 1
    24   13   40 1
    25   13   41 1
    26   14   16 1
    27   14   15 1
    28   14   42 1
    29   15   16 1
    30   15   43 1
    31   15   44 1
    32   16   17 1
    33   16   45 1
    34   17   22 ar
    35   17   18 ar
    36   18   19 ar
    37   18   46 1
    38   19   20 ar
    39   19   47 1
    40   20   26 1
    41   20   21 ar
    42   21   22 ar
    43   21   23 1
    44   22   48 1
    45   23   24 2
    46   23   27 1
    47   24   25 1
    48   25   26 1
    49   25   49 1
    50   25   50 1
    51   26   51 1
    52   26   52 1
    53   27   32 1
    54   27   28 1
    55   27   53 1
    56   28   29 1
    57   28   54 1
    58   28   55 1
    59   29   30 1
    60   29   56 1
    61   29   57 1
    62   30   31 1
    63   30   58 1
    64   30   59 1
    65   31   32 1
    66   31   60 1
    67   31   61 1
    68   32   62 1
    69   32   63 1
@<TRIPOS>MOLECULE
CHEMBL182303__1
   64    69     0     0     0
SMALL
USER_CHARGES

@<TRIPOS>ATOM
      1 C1          0.1394    0.5933   -0.0693 C.ar      1 <0>        -0.0881
      2 C2          1.2639    1.3597   -0.0356 C.ar      1 <0>        -0.1045
      3 C3          2.5288    0.7795   -0.1005 C.ar      1 <0>        -0.0027
      4 C4          2.6772   -0.5705   -0.1990 C.ar      1 <0>        -0.1124
      5 C5          1.5407   -1.3949   -0.2361 C.ar      1 <0>        -0.0053
      6 C6          0.2528   -0.8046   -0.1706 C.ar      1 <0>        -0.0723
      7 C7         -0.8856   -1.6241   -0.2083 C.ar      1 <0>        -0.0090
      8 C8         -0.7334   -2.9962   -0.3089 C.ar      1 <0>        -0.1583
      9 C9          0.5487   -3.5698   -0.3726 C.ar      1 <0>        -0.0942
     10 C10         1.6614   -2.7930   -0.3386 C.ar      1 <0>        -0.0799
     11 C11        -1.9291   -3.8659   -0.3491 C.cat     1 <0>         0.6000
     12 N1         -1.7887   -5.1868   -0.4459 N.pl3     1 <0>        -0.7617
     13 N2         -3.1460   -3.3282   -0.2886 N.pl3     1 <0>        -0.7656
     14 C12         3.7517    1.6594   -0.0615 C.3       1 <0>        -0.1237
     15 C13         3.5449    3.1428    0.2511 C.3       1 <0>        -0.1628
     16 C14         3.9063    2.7034   -1.1692 C.3       1 <0>        -0.0888
     17 C15         5.3014    3.0004   -1.6557 C.ar      1 <0>        -0.0667
     18 C16         6.2527    3.4778   -0.7714 C.ar      1 <0>        -0.1012
     19 C17         7.5383    3.7545   -1.2058 C.ar      1 <0>        -0.1116
     20 C18         7.8736    3.5536   -2.5253 C.ar      1 <0>        -0.0632
     21 C19         6.9170    3.0712   -3.4238 C.ar      1 <0>        -0.1028
     22 C20         5.6271    2.7897   -2.9811 C.ar      1 <0>        -0.0722
     23 C21         7.3090    2.8684   -4.8318 C.2       1 <0>         0.2129
     24 N3          8.5589    2.7767   -5.1417 N.2       1 <0>        -0.5052
     25 C22         9.6162    2.8501   -4.1391 C.3       1 <0>         0.0394
     26 C23         9.2619    3.8429   -3.0330 C.3       1 <0>        -0.1128
     27 C24         6.2545    2.7692   -5.9038 C.3       1 <0>        -0.0372
     28 C25         6.9165    2.4275   -7.2402 C.3       1 <0>        -0.1001
     29 C26         5.8459    2.3268   -8.3287 C.3       1 <0>        -0.1220
     30 C27         5.1140    3.6650   -8.4495 C.3       1 <0>        -0.1231
     31 C28         4.4521    4.0067   -7.1131 C.3       1 <0>        -0.1167
     32 C29         5.5226    4.1074   -6.0247 C.3       1 <0>        -0.1094
     33 H1         -0.8348    1.0562   -0.0140 H         1 <0>         0.1405
     34 H2          1.1741    2.4331    0.0422 H         1 <0>         0.1395
     35 H3          3.6645   -1.0054   -0.2487 H         1 <0>         0.1412
     36 H4         -1.8723   -1.1879   -0.1588 H         1 <0>         0.1410
     37 H5          0.6496   -4.6423   -0.4502 H         1 <0>         0.1344
     38 H6          2.6394   -3.2483   -0.3892 H         1 <0>         0.1487
     39 H7         -0.9024   -5.5784   -0.4899 H         1 <0>         0.4446
     40 H8         -3.2482   -2.3662   -0.2182 H         1 <0>         0.4429
     41 H9         -3.9301   -3.8986   -0.3150 H         1 <0>         0.4334
     42 H10         4.6589    1.1871    0.3151 H         1 <0>         0.1234
     43 H11         2.5244    3.4823    0.4285 H         1 <0>         0.1068
     44 H12         4.3162    3.6466    0.8336 H         1 <0>         0.1099
     45 H13         3.1236    2.7538   -1.9262 H         1 <0>         0.1185
     46 H14         5.9908    3.6359    0.2644 H         1 <0>         0.1271
     47 H15         8.2761    4.1269   -0.5105 H         1 <0>         0.1293
     48 H16         4.8857    2.4131   -3.6701 H         1 <0>         0.1296
     49 H17         9.7612    1.8630   -3.7000 H         1 <0>         0.0778
     50 H18        10.5424    3.1658   -4.6192 H         1 <0>         0.0977
     51 H19         9.2998    4.8575   -3.4296 H         1 <0>         0.0844
     52 H20         9.9757    3.7455   -2.2150 H         1 <0>         0.0894
     53 H21         5.5416    1.9877   -5.6411 H         1 <0>         0.0868
     54 H22         7.6293    3.2091   -7.5030 H         1 <0>         0.0713
     55 H23         7.4379    1.4742   -7.1542 H         1 <0>         0.0657
     56 H24         6.3175    2.0834   -9.2807 H         1 <0>         0.0643
     57 H25         5.1330    1.5452   -8.0659 H         1 <0>         0.0591
     58 H26         5.8269    4.4466   -8.7122 H         1 <0>         0.0633
     59 H27         4.3513    3.5933   -9.2249 H         1 <0>         0.0617
     60 H28         3.9307    4.9601   -7.1992 H         1 <0>         0.0645
     61 H29         3.7392    3.2251   -6.8503 H         1 <0>         0.0611
     62 H30         5.0511    4.3509   -5.0726 H         1 <0>         0.0648
     63 H31         6.2355    4.8890   -6.2874 H         1 <0>         0.0660
     64 H32        -2.5728   -5.7571   -0.4722 H         1 <0>         0.4328
@<TRIPOS>BOND
     1    1    6 ar
     2    1    2 ar
     3    1   33 1
     4    2    3 ar
     5    2   34 1
     6    3    4 ar
     7    3   14 1
     8    4    5 ar
     9    4   35 1
    10    5   10 ar
    11    5    6 ar
    12    6    7 ar
    13    7    8 ar
    14    7   36 1
    15    8    9 ar
    16    8   11 1
    17    9   10 ar
    18    9   37 1
    19   10   38 1
    20   11   12 2
    21   11   13 1
    22   12   39 1
    23   12   64 1
    24   13   40 1
    25   13   41 1
    26   14   16 1
    27   14   15 1
    28   14   42 1
    29   15   16 1
    30   15   43 1
    31   15   44 1
    32   16   17 1
    33   16   45 1
    34   17   22 ar
    35   17   18 ar
    36   18   19 ar
    37   18   46 1
    38   19   20 ar
    39   19   47 1
    40   20   26 1
    41   20   21 ar
    42   21   22 ar
    43   21   23 1
    44   22   48 1
    45   23   24 2
    46   23   27 1
    47   24   25 1
    48   25   26 1
    49   25   49 1
    50   25   50 1
    51   26   51 1
    52   26   52 1
    53   27   32 1
    54   27   28 1
    55   27   53 1
    56   28   29 1
    57   28   54 1
    58   28   55 1
    59   29   30 1
    60   29   56 1
    61   29   57 1
    62   30   31 1
    63   30   58 1
    64   30   59 1
    65   31   32 1
    66   31   60 1
    67   31   61 1
    68   32   62 1
    69   32   63 1
@<TRIPOS>MOLECULE
CHEMBL182303__2
   64    69     0     0     0
SMALL
USER_CHARGES

@<TRIPOS>ATOM
      1 C1         -0.3329    2.0471    0.3873 C.ar      1 <0>        -0.0882
      2 C2          0.8741    2.6751    0.3471 C.ar      1 <0>        -0.1046
      3 C3          2.0564    1.9483    0.2247 C.ar      1 <0>        -0.0027
      4 C4          2.0389    0.5892    0.1422 C.ar      1 <0>        -0.1120
      5 C5          0.8129   -0.0950    0.1807 C.ar      1 <0>        -0.0052
      6 C6         -0.3908    0.6446    0.3048 C.ar      1 <0>        -0.0722
      7 C7         -1.6181   -0.0345    0.3428 C.ar      1 <0>        -0.0090
      8 C8         -1.6345   -1.4159    0.2585 C.ar      1 <0>        -0.1583
      9 C9         -0.4343   -2.1382    0.1362 C.ar      1 <0>        -0.0942
     10 C10         0.7622   -1.4986    0.0967 C.ar      1 <0>        -0.0797
     11 C11        -2.9246   -2.1381    0.2978 C.cat     1 <0>         0.6000
     12 N1         -2.9465   -3.4673    0.2171 N.pl3     1 <0>        -0.7617
     13 N2         -4.0645   -1.4592    0.4140 N.pl3     1 <0>        -0.7657
     14 C12         3.3746    2.6773    0.1823 C.3       1 <0>        -0.1228
     15 C13         3.3350    4.2030    0.0740 C.3       1 <0>        -0.1634
     16 C14         3.7439    3.5399    1.3908 C.3       1 <0>        -0.0889
     17 C15         5.1982    3.6054    1.7806 C.ar      1 <0>        -0.0666
     18 C16         6.1313    4.0927    0.8824 C.ar      1 <0>        -0.1013
     19 C17         7.4707    4.1581    1.2283 C.ar      1 <0>        -0.1115
     20 C18         7.8780    3.7365    2.4734 C.ar      1 <0>        -0.0634
     21 C19         6.9401    3.2433    3.3856 C.ar      1 <0>        -0.1026
     22 C20         5.5938    3.1842    3.0349 C.ar      1 <0>        -0.0722
     23 C21         7.4104    2.7981    4.7115 C.2       1 <0>         0.2120
     24 N3          8.5594    3.1920    5.1489 N.2       1 <0>        -0.5044
     25 C22         9.4188    4.0867    4.3811 C.3       1 <0>         0.0387
     26 C23         9.3260    3.7938    2.8844 C.3       1 <0>        -0.1122
     27 C24         6.5531    1.8867    5.5514 C.3       1 <0>        -0.0375
     28 C25         7.2073    1.6898    6.9204 C.3       1 <0>        -0.1005
     29 C26         6.3369    0.7645    7.7732 C.3       1 <0>        -0.1227
     30 C27         6.1964   -0.5898    7.0755 C.3       1 <0>        -0.1227
     31 C28         5.5423   -0.3929    5.7065 C.3       1 <0>        -0.1157
     32 C29         6.4127    0.5324    4.8537 C.3       1 <0>        -0.1082
     33 H1         -1.2413    2.6229    0.4866 H         1 <0>         0.1403
     34 H2          0.9159    3.7524    0.4106 H         1 <0>         0.1393
     35 H3          2.9639    0.0397    0.0473 H         1 <0>         0.1415
     36 H4         -2.5424    0.5162    0.4374 H         1 <0>         0.1409
     37 H5         -0.4650   -3.2159    0.0723 H         1 <0>         0.1343
     38 H6          1.6755   -2.0672    0.0018 H         1 <0>         0.1488
     39 H7         -2.1163   -3.9617    0.1325 H         1 <0>         0.4446
     40 H8         -4.0486   -0.4911    0.4728 H         1 <0>         0.4429
     41 H9         -4.9106   -1.9329    0.4398 H         1 <0>         0.4333
     42 H10         4.1834    2.1569   -0.3305 H         1 <0>         0.1237
     43 H11         4.1178    4.6865   -0.5104 H         1 <0>         0.1099
     44 H12         2.3554    4.6793    0.0333 H         1 <0>         0.1066
     45 H13         3.0335    3.5801    2.2165 H         1 <0>         0.1182
     46 H14         5.8130    4.4239   -0.0950 H         1 <0>         0.1271
     47 H15         8.1939    4.5395    0.5227 H         1 <0>         0.1293
     48 H16         4.8648    2.8079    3.7373 H         1 <0>         0.1296
     49 H17         9.1143    5.1174    4.5628 H         1 <0>         0.0790
     50 H18        10.4509    3.9575    4.7070 H         1 <0>         0.0979
     51 H19         9.8024    2.8368    2.6712 H         1 <0>         0.0836
     52 H20         9.8309    4.5832    2.3276 H         1 <0>         0.0896
     53 H21         5.5670    2.3328    5.6808 H         1 <0>         0.0876
     54 H22         8.1934    1.2437    6.7911 H         1 <0>         0.0711
     55 H23         7.3073    2.6546    7.4175 H         1 <0>         0.0668
     56 H24         6.8029    0.6242    8.7485 H         1 <0>         0.0648
     57 H25         5.3508    1.2106    7.9026 H         1 <0>         0.0599
     58 H26         7.1826   -1.0359    6.9461 H         1 <0>         0.0630
     59 H27         5.5764   -1.2490    7.6830 H         1 <0>         0.0611
     60 H28         5.4422   -1.3577    5.2094 H         1 <0>         0.0622
     61 H29         4.5561    0.0532    5.8358 H         1 <0>         0.0610
     62 H30         5.9466    0.6727    3.8784 H         1 <0>         0.0639
     63 H31         7.3988    0.0863    4.7243 H         1 <0>         0.0654
     64 H32        -3.7926   -3.9409    0.2429 H         1 <0>         0.4328
@<TRIPOS>BOND
     1    1    6 ar
     2    1    2 ar
     3    1   33 1
     4    2    3 ar
     5    2   34 1
     6    3    4 ar
     7    3   14 1
     8    4    5 ar
     9    4   35 1
    10    5   10 ar
    11    5    6 ar
    12    6    7 ar
    13    7    8 ar
    14    7   36 1
    15    8    9 ar
    16    8   11 1
    17    9   10 ar
    18    9   37 1
    19   10   38 1
    20   11   12 2
    21   11   13 1
    22   12   39 1
    23   12   64 1
    24   13   40 1
    25   13   41 1
    26   14   16 1
    27   14   15 1
    28   14   42 1
    29   15   16 1
    30   15   43 1
    31   15   44 1
    32   16   17 1
    33   16   45 1
    34   17   22 ar
    35   17   18 ar
    36   18   19 ar
    37   18   46 1
    38   19   20 ar
    39   19   47 1
    40   20   26 1
    41   20   21 ar
    42   21   22 ar
    43   21   23 1
    44   22   48 1
    45   23   24 2
    46   23   27 1
    47   24   25 1
    48   25   26 1
    49   25   49 1
    50   25   50 1
    51   26   51 1
    52   26   52 1
    53   27   32 1
    54   27   28 1
    55   27   53 1
    56   28   29 1
    57   28   54 1
    58   28   55 1
    59   29   30 1
    60   29   56 1
    61   29   57 1
    62   30   31 1
    63   30   58 1
    64   30   59 1
    65   31   32 1
    66   31   60 1
    67   31   61 1
    68   32   62 1
    69   32   63 1
@<TRIPOS>MOLECULE
CHEMBL182303__3
   64    69     0     0     0
SMALL
USER_CHARGES

@<TRIPOS>ATOM
      1 C1          0.8902   -0.1306    0.8937 C.ar      1 <0>        -0.0906
      2 C2          1.7580    0.8518    0.5267 C.ar      1 <0>        -0.0965
      3 C3          3.1092    0.7749    0.8577 C.ar      1 <0>         0.0018
      4 C4          3.6006   -0.2844    1.5580 C.ar      1 <0>        -0.1130
      5 C5          2.7364   -1.3179    1.9550 C.ar      1 <0>        -0.0048
      6 C6          1.3610   -1.2402    1.6178 C.ar      1 <0>        -0.0701
      7 C7          0.4939   -2.2708    2.0114 C.ar      1 <0>        -0.0100
      8 C8          0.9948   -3.3472    2.7228 C.ar      1 <0>        -0.1588
      9 C9          2.3603   -3.4127    3.0517 C.ar      1 <0>        -0.0951
     10 C10         3.2143   -2.4259    2.6786 C.ar      1 <0>        -0.0796
     11 C11         0.0864   -4.4370    3.1409 C.cat     1 <0>         0.6001
     12 N1          0.5629   -5.4752    3.8256 N.pl3     1 <0>        -0.7618
     13 N2         -1.2079   -4.3801    2.8326 N.pl3     1 <0>        -0.7661
     14 C12         4.0410    1.8808    0.4338 C.3       1 <0>        -0.1233
     15 C13         3.4435    3.0408   -0.3652 C.3       1 <0>        -0.1644
     16 C14         3.8586    3.2497    1.0925 C.3       1 <0>        -0.0955
     17 C15         2.7609    3.3889    2.1156 C.ar      1 <0>        -0.0613
     18 C16         1.4644    3.6446    1.7049 C.ar      1 <0>        -0.0988
     19 C17         0.4465    3.7747    2.6350 C.ar      1 <0>        -0.1140
     20 C18         0.7245    3.6485    3.9769 C.ar      1 <0>        -0.0646
     21 C19         2.0325    3.3899    4.3983 C.ar      1 <0>        -0.1034
     22 C20         3.0515    3.2550    3.4590 C.ar      1 <0>        -0.0698
     23 C21         2.2966    3.2619    5.8444 C.2       1 <0>         0.2175
     24 N3          1.3207    3.0225    6.6549 N.2       1 <0>        -0.5092
     25 C22        -0.0522    2.8543    6.1909 C.3       1 <0>         0.0428
     26 C23        -0.3571    3.7830    5.0166 C.3       1 <0>        -0.1125
     27 C24         3.7000    3.4105    6.3731 C.3       1 <0>        -0.0380
     28 C25         4.1861    4.8415    6.1341 C.3       1 <0>        -0.1095
     29 C26         5.6109    4.9924    6.6709 C.3       1 <0>        -0.1176
     30 C27         5.6251    4.6928    8.1712 C.3       1 <0>        -0.1233
     31 C28         5.1390    3.2619    8.4101 C.3       1 <0>        -0.1223
     32 C29         3.7142    3.1109    7.8734 C.3       1 <0>        -0.0985
     33 H1         -0.1554   -0.0561    0.6338 H         1 <0>         0.1377
     34 H2          1.3940    1.7030   -0.0295 H         1 <0>         0.1362
     35 H3          4.6506   -0.3298    1.8069 H         1 <0>         0.1408
     36 H4         -0.5558   -2.2243    1.7616 H         1 <0>         0.1395
     37 H5          2.7346   -4.2594    3.6079 H         1 <0>         0.1339
     38 H6          4.2607   -2.4907    2.9380 H         1 <0>         0.1483
     39 H7          1.5056   -5.5166    4.0502 H         1 <0>         0.4446
     40 H8         -1.5549   -3.6240    2.3339 H         1 <0>         0.4426
     41 H9         -1.8037   -5.0948    3.1068 H         1 <0>         0.4332
     42 H10         5.0572    1.5714    0.1891 H         1 <0>         0.1276
     43 H11         4.0665    3.4947   -1.1359 H         1 <0>         0.1117
     44 H12         2.3764    3.0040   -0.5842 H         1 <0>         0.1036
     45 H13         4.7547    3.8410    1.2808 H         1 <0>         0.1270
     46 H14         1.2449    3.7439    0.6521 H         1 <0>         0.1253
     47 H15        -0.5632    3.9743    2.3079 H         1 <0>         0.1270
     48 H16         4.0627    3.0512    3.7790 H         1 <0>         0.1299
     49 H17        -0.1989    1.8210    5.8765 H         1 <0>         0.0716
     50 H18        -0.7360    3.0779    7.0098 H         1 <0>         0.0957
     51 H19        -0.3963    4.8137    5.3690 H         1 <0>         0.0846
     52 H20        -1.3178    3.5119    4.5787 H         1 <0>         0.0866
     53 H21         4.3586    2.7121    5.8568 H         1 <0>         0.0873
     54 H22         4.1760    5.0549    5.0653 H         1 <0>         0.0653
     55 H23         3.5275    5.5399    6.6503 H         1 <0>         0.0655
     56 H24         6.2695    4.2939    6.1547 H         1 <0>         0.0627
     57 H25         5.9572    6.0118    6.5007 H         1 <0>         0.0658
     58 H26         6.6401    4.8003    8.5536 H         1 <0>         0.0630
     59 H27         4.9664    5.3912    8.6874 H         1 <0>         0.0629
     60 H28         5.7976    2.5634    7.8939 H         1 <0>         0.0598
     61 H29         5.1491    3.0484    9.4790 H         1 <0>         0.0641
     62 H30         3.0555    3.8094    8.3896 H         1 <0>         0.0706
     63 H31         3.3679    2.0915    8.0436 H         1 <0>         0.0635
     64 H32        -0.0329   -6.1899    4.0998 H         1 <0>         0.4327
@<TRIPOS>BOND
     1    1    6 ar
     2    1    2 ar
     3    1   33 1
     4    2    3 ar
     5    2   34 1
     6    3    4 ar
     7    3   14 1
     8    4    5 ar
     9    4   35 1
    10    5   10 ar
    11    5    6 ar
    12    6    7 ar
    13    7    8 ar
    14    7   36 1
    15    8    9 ar
    16    8   11 1
    17    9   10 ar
    18    9   37 1
    19   10   38 1
    20   11   12 2
    21   11   13 1
    22   12   39 1
    23   12   64 1
    24   13   40 1
    25   13   41 1
    26   14   16 1
    27   14   15 1
    28   14   42 1
    29   15   16 1
    30   15   43 1
    31   15   44 1
    32   16   17 1
    33   16   45 1
    34   17   22 ar
    35   17   18 ar
    36   18   19 ar
    37   18   46 1
    38   19   20 ar
    39   19   47 1
    40   20   26 1
    41   20   21 ar
    42   21   22 ar
    43   21   23 1
    44   22   48 1
    45   23   24 2
    46   23   27 1
    47   24   25 1
    48   25   26 1
    49   25   49 1
    50   25   50 1
    51   26   51 1
    52   26   52 1
    53   27   32 1
    54   27   28 1
    55   27   53 1
    56   28   29 1
    57   28   54 1
    58   28   55 1
    59   29   30 1
    60   29   56 1
    61   29   57 1
    62   30   31 1
    63   30   58 1
    64   30   59 1
    65   31   32 1
    66   31   60 1
    67   31   61 1
    68   32   62 1
    69   32   63 1
@<TRIPOS>MOLECULE
CHEMBL227976
   47    49     0     0     0
SMALL
USER_CHARGES

@<TRIPOS>ATOM
      1 C1          0.3099    1.3468   -0.7069 C.ar      1 <0>         0.0314
      2 C2          1.4916    1.9737   -0.9719 C.ar      1 <0>        -0.1351
      3 C3          2.6859    1.2433   -0.9189 C.ar      1 <0>         0.0410
      4 C4          2.6464   -0.1349   -0.5907 C.ar      1 <0>        -0.1363
      5 C5          1.4186   -0.7463   -0.3247 C.ar      1 <0>         0.0511
      6 C6          0.2731   -0.0068   -0.3848 C.ar      1 <0>        -0.6261
      7 S1         -1.2756   -0.7771   -0.0489 S.o2      1 <0>         2.6981
      8 O1         -0.9878   -1.9792    0.6520 O.2       1 <0>        -0.9660
      9 O2         -2.1235    0.2311    0.4839 O.2       1 <0>        -0.9834
     10 N1         -1.9269   -1.2224   -1.5049 N.pl3     1 <0>        -1.0790
     11 C7         -1.2170   -2.1725   -2.3649 C.3       1 <0>         0.1082
     12 C8         -0.7267   -3.3533   -1.5246 C.3       1 <0>        -0.1238
     13 C9         -1.9245   -4.0495   -0.8754 C.3       1 <0>        -0.1060
     14 C10        -2.8713   -4.5572   -1.9647 C.3       1 <0>        -0.1199
     15 C11        -3.3617   -3.3764   -2.8051 C.3       1 <0>        -0.1175
     16 C12        -2.1639   -2.6802   -3.4543 C.3       1 <0>        -0.0963
     17 C13        -0.0372   -1.4868   -3.0044 C.2       1 <0>         0.4831
     18 O3          0.0956   -0.2793   -2.9010 O.co2     1 <0>        -0.6704
     19 O4          0.7844   -2.1396   -3.6251 O.co2     1 <0>        -0.6815
     20 C14         3.9104   -0.8689   -0.5432 C.ar      1 <0>         0.4274
     21 N2          5.0385   -0.2217   -0.8073 N.ar      1 <0>        -0.5227
     22 C15         5.0643    1.0671   -1.1131 C.ar      1 <0>         0.1276
     23 C16         3.9405    1.8304   -1.1813 C.ar      1 <0>        -0.1213
     24 Cl1         4.0502    3.5142   -1.5890 Cl        1 <0>        -0.0685
     25 N3          3.9295   -2.1924   -0.2333 N.2       1 <0>        -0.6145
     26 C17         3.9722   -2.5731    1.0269 C.2       1 <0>         0.6795
     27 N4          3.8957   -1.6407    2.0268 N.pl3     1 <0>        -0.8781
     28 N5          4.0931   -3.9014    1.3371 N.pl3     1 <0>        -0.8332
     29 H1         -0.6108    1.9100   -0.7431 H         1 <0>         0.1294
     30 H2          1.5066    3.0245   -1.2210 H         1 <0>         0.1321
     31 H3          1.3763   -1.7960   -0.0739 H         1 <0>         0.1370
     32 H4         -2.7784   -0.8542   -1.7883 H         1 <0>         0.4082
     33 H5         -0.1986   -4.0602   -2.1644 H         1 <0>         0.0764
     34 H6         -0.0522   -2.9916   -0.7485 H         1 <0>         0.0750
     35 H7         -1.5752   -4.8907   -0.2766 H         1 <0>         0.0543
     36 H8         -2.4527   -3.3426   -0.2355 H         1 <0>         0.0623
     37 H9         -2.3432   -5.2641   -2.6046 H         1 <0>         0.0585
     38 H10        -3.7247   -5.0531   -1.5022 H         1 <0>         0.0524
     39 H11        -4.0362   -3.7380   -3.5812 H         1 <0>         0.0549
     40 H12        -3.8898   -2.6695   -2.1652 H         1 <0>         0.0583
     41 H13        -2.5132   -1.8390   -4.0530 H         1 <0>         0.0597
     42 H14        -1.6357   -3.3871   -4.0942 H         1 <0>         0.0761
     43 H15         6.0179    1.5314   -1.3168 H         1 <0>         0.1533
     44 H16         3.7360   -0.7088    1.8098 H         1 <0>         0.4131
     45 H17         4.0012   -1.9120    2.9521 H         1 <0>         0.3984
     46 H18         4.1473   -4.5619    0.6288 H         1 <0>         0.4246
     47 H19         4.1245   -4.1818    2.2652 H         1 <0>         0.4082
@<TRIPOS>BOND
     1    1    6 ar
     2    1    2 ar
     3    1   29 1
     4    2    3 ar
     5    2   30 1
     6    3   23 ar
     7    3    4 ar
     8    4    5 ar
     9    4   20 ar
    10    5    6 ar
    11    5   31 1
    12    6    7 1
    13    7    8 2
    14    7    9 2
    15    7   10 1
    16   10   11 1
    17   10   32 1
    18   11   16 1
    19   11   12 1
    20   11   17 1
    21   12   13 1
    22   12   33 1
    23   12   34 1
    24   13   14 1
    25   13   35 1
    26   13   36 1
    27   14   15 1
    28   14   37 1
    29   14   38 1
    30   15   16 1
    31   15   39 1
    32   15   40 1
    33   16   41 1
    34   16   42 1
    35   17   18 2
    36   17   19 1
    37   20   21 ar
    38   20   25 1
    39   21   22 ar
    40   22   23 ar
    41   22   43 1
    42   23   24 1
    43   25   26 2
    44   26   27 1
    45   26   28 1
    46   27   44 1
    47   27   45 1
    48   28   46 1
    49   28   47 1
@<TRIPOS>MOLECULE
CHEMBL559895
   37    39     0     0     0
SMALL
USER_CHARGES

@<TRIPOS>ATOM
      1 C1         -0.0173    1.4248    0.0099 C.3       1 <0>         0.0181
      2 O1          0.0021   -0.0041    0.0020 O.3       1 <0>        -0.2982
      3 C2         -1.2013   -0.6380    0.0101 C.ar      1 <0>         0.1592
      4 C3         -2.3776    0.1125    0.0196 C.ar      1 <0>        -0.1542
      5 C4         -3.5971   -0.4936    0.0278 C.ar      1 <0>        -0.0592
      6 C5         -3.6859   -1.8949    0.0263 C.ar      1 <0>        -0.0399
      7 C6         -4.9368   -2.5403    0.0342 C.ar      1 <0>        -0.0614
      8 C7         -5.0017   -3.8958    0.0327 C.ar      1 <0>        -0.1069
      9 C8         -3.8301   -4.6739    0.0234 C.ar      1 <0>        -0.1406
     10 C9         -2.5846   -4.0687    0.0150 C.ar      1 <0>        -0.0244
     11 C10        -2.4977   -2.6696    0.0163 C.ar      1 <0>        -0.0218
     12 C11        -1.2472   -2.0185    0.0031 C.ar      1 <0>         0.0552
     13 O2         -0.0976   -2.7424   -0.0118 O.3       1 <0>        -0.2215
     14 C12         0.4527   -3.0882    1.1790 C.ar      1 <0>         0.2549
     15 C13         1.6328   -3.8245    1.2141 C.ar      1 <0>         0.0521
     16 N1          2.1656   -4.1588    2.3742 N.ar      1 <0>        -0.3990
     17 C14         1.5791   -3.7947    3.5022 C.ar      1 <0>         0.0184
     18 C15         0.4066   -3.0637    3.4705 C.ar      1 <0>         0.0930
     19 N2         -0.1296   -2.7208    2.3115 N.ar      1 <0>        -0.4842
     20 C16        -3.9290   -6.1489    0.0230 C.cat     1 <0>         0.6018
     21 N3         -4.9661   -6.7471    0.6071 N.pl3     1 <0>        -0.7568
     22 N4         -2.9810   -6.8799   -0.5615 N.pl3     1 <0>        -0.7596
     23 H1          1.0053    1.8021    0.0021 H         1 <0>         0.1122
     24 H2         -0.5445    1.7859   -0.8732 H         1 <0>         0.0660
     25 H3         -0.5275    1.7763    0.9067 H         1 <0>         0.0641
     26 H4         -2.3200    1.1910    0.0207 H         1 <0>         0.1523
     27 H5         -4.4966    0.1041    0.0357 H         1 <0>         0.1526
     28 H6         -5.8453   -1.9565    0.0417 H         1 <0>         0.1529
     29 H7         -5.9653   -4.3833    0.0391 H         1 <0>         0.1398
     30 H8         -1.6873   -4.6697    0.0082 H         1 <0>         0.1394
     31 H9          2.1119   -4.1223    0.2932 H         1 <0>         0.1798
     32 H10         2.0172   -4.0695    4.4504 H         1 <0>         0.1789
     33 H11        -0.0699   -2.7684    4.3936 H         1 <0>         0.1769
     34 H12        -5.6564   -6.2149    1.0327 H         1 <0>         0.4471
     35 H13        -2.2258   -6.4444   -0.9868 H         1 <0>         0.4461
     36 H14        -3.0459   -7.8478   -0.5617 H         1 <0>         0.4337
     37 H15        -5.0310   -7.7149    0.6068 H         1 <0>         0.4332
@<TRIPOS>BOND
     1    1    2 1
     2    1   23 1
     3    1   24 1
     4    1   25 1
     5    2    3 1
     6    3   12 ar
     7    3    4 ar
     8    4    5 ar
     9    4   26 1
    10    5    6 ar
    11    5   27 1
    12    6   11 ar
    13    6    7 ar
    14    7    8 ar
    15    7   28 1
    16    8    9 ar
    17    8   29 1
    18    9   10 ar
    19    9   20 1
    20   10   11 ar
    21   10   30 1
    22   11   12 ar
    23   12   13 1
    24   13   14 1
    25   14   19 ar
    26   14   15 ar
    27   15   16 ar
    28   15   31 1
    29   16   17 ar
    30   17   18 ar
    31   17   32 1
    32   18   19 ar
    33   18   33 1
    34   20   21 2
    35   20   22 1
    36   21   34 1
    37   21   37 1
    38   22   35 1
    39   22   36 1
@<TRIPOS>MOLECULE
CHEMBL376763
   50    52     0     0     0
SMALL
USER_CHARGES

@<TRIPOS>ATOM
      1 C1         -0.2421    1.5607   -0.2475 C.3       1 <0>        -0.1380
      2 C2         -0.1538    0.0353   -0.1678 C.3       1 <0>         0.0697
      3 H1          0.2227   -0.3567   -1.1126 H         1 <0>         0.0913
      4 C3          0.7818   -0.3561    0.9469 C.2       1 <0>         0.4897
      5 O1          0.3413   -0.8740    1.9589 O.co2     1 <0>        -0.6781
      6 O2          1.9792   -0.1548    0.8367 O.co2     1 <0>        -0.6936
      7 N1         -1.4847   -0.5179    0.0948 N.pl3     1 <0>        -0.9514
      8 C4         -2.2514   -0.0615    1.2568 C.3       1 <0>         0.1670
      9 C5         -3.0279    1.1772    0.8912 C.ar      1 <0>        -0.0991
     10 C6         -2.5289    2.4257    1.2123 C.ar      1 <0>        -0.0972
     11 C7         -3.2412    3.5619    0.8770 C.ar      1 <0>        -0.1307
     12 C8         -4.4524    3.4497    0.2202 C.ar      1 <0>        -0.1245
     13 C9         -4.9510    2.2012   -0.1017 C.ar      1 <0>        -0.1305
     14 C10        -4.2366    1.0651    0.2298 C.ar      1 <0>        -0.1118
     15 S1         -2.1224   -1.6590   -0.9217 S.o2      1 <0>         2.6850
     16 O3         -3.5343   -1.5878   -0.7776 O.2       1 <0>        -0.9647
     17 O4         -1.4753   -1.4927   -2.1759 O.2       1 <0>        -0.9617
     18 C11        -1.6324   -3.2361   -0.3075 C.ar      1 <0>        -0.6717
     19 C12        -0.4372   -3.8010   -0.7445 C.ar      1 <0>         0.0013
     20 C13        -0.0289   -5.0196   -0.2895 C.ar      1 <0>        -0.1324
     21 C14        -0.8248   -5.7130    0.6322 C.ar      1 <0>         0.0369
     22 C15        -2.0408   -5.1362    1.0763 C.ar      1 <0>        -0.1393
     23 C16        -2.4273   -3.8828    0.5935 C.ar      1 <0>         0.0521
     24 C17        -2.8480   -5.8846    2.0384 C.ar      1 <0>         0.4266
     25 N2         -2.4148   -7.0675    2.4569 N.ar      1 <0>        -0.5268
     26 C18        -1.2766   -7.5977    2.0354 C.ar      1 <0>         0.1335
     27 C19        -0.4606   -6.9754    1.1421 C.ar      1 <0>        -0.1214
     28 Cl1         1.0174   -7.7309    0.6337 Cl        1 <0>        -0.0575
     29 N3         -4.0228   -5.3772    2.4974 N.2       1 <0>        -0.6256
     30 C20        -5.1573   -5.7195    1.9225 C.2       1 <0>         0.6859
     31 N4         -5.1648   -6.6637    0.9307 N.pl3     1 <0>        -0.8754
     32 N5         -6.3294   -5.1313    2.3167 N.pl3     1 <0>        -0.8313
     33 H2          0.6913    1.9584   -0.6458 H         1 <0>         0.0624
     34 H3         -1.0662    1.8431   -0.9026 H         1 <0>         0.0483
     35 H4         -0.4144    1.9672    0.7490 H         1 <0>         0.0621
     36 H5         -2.9425   -0.8453    1.5667 H         1 <0>         0.0770
     37 H6         -1.5690    0.1660    2.0758 H         1 <0>         0.1141
     38 H7         -1.5827    2.5134    1.7255 H         1 <0>         0.1283
     39 H8         -2.8517    4.5373    1.1285 H         1 <0>         0.1173
     40 H9         -5.0093    4.3374   -0.0412 H         1 <0>         0.1143
     41 H10        -5.8974    2.1135   -0.6146 H         1 <0>         0.1161
     42 H11        -4.6244    0.0899   -0.0250 H         1 <0>         0.1431
     43 H12         0.1755   -3.2658   -1.4548 H         1 <0>         0.1421
     44 H13         0.9001   -5.4471   -0.6369 H         1 <0>         0.1421
     45 H14        -3.3498   -3.4316    0.9277 H         1 <0>         0.1475
     46 H15        -0.9838   -8.5646    2.4170 H         1 <0>         0.1581
     47 H16        -4.3494   -7.1395    0.7079 H         1 <0>         0.4147
     48 H17        -5.9854   -6.8566    0.4509 H         1 <0>         0.4002
     49 H18        -6.3241   -4.4626    3.0193 H         1 <0>         0.4257
     50 H19        -7.1649   -5.3835    1.8934 H         1 <0>         0.4104
@<TRIPOS>BOND
     1    1    2 1
     2    1   33 1
     3    1   34 1
     4    1   35 1
     5    2    3 1
     6    2    4 1
     7    2    7 1
     8    4    5 2
     9    4    6 1
    10    7    8 1
    11    7   15 1
    12    8    9 1
    13    8   36 1
    14    8   37 1
    15    9   14 ar
    16    9   10 ar
    17   10   11 ar
    18   10   38 1
    19   11   12 ar
    20   11   39 1
    21   12   13 ar
    22   12   40 1
    23   13   14 ar
    24   13   41 1
    25   14   42 1
    26   15   16 2
    27   15   17 2
    28   15   18 1
    29   18   23 ar
    30   18   19 ar
    31   19   20 ar
    32   19   43 1
    33   20   21 ar
    34   20   44 1
    35   21   27 ar
    36   21   22 ar
    37   22   23 ar
    38   22   24 ar
    39   23   45 1
    40   24   25 ar
    41   24   29 1
    42   25   26 ar
    43   26   27 ar
    44   26   46 1
    45   27   28 1
    46   29   30 2
    47   30   31 1
    48   30   32 1
    49   31   47 1
    50   31   48 1
    51   32   49 1
    52   32   50 1
@<TRIPOS>MOLECULE
CHEMBL558669
   64    68     0     0     0
SMALL
USER_CHARGES

@<TRIPOS>ATOM
      1 C1         -0.0331    1.5033    0.0814 C.3       1 <0>        -0.1323
      2 C2         -0.0109   -0.0034    0.0641 C.ar      1 <0>        -0.0420
      3 C3         -0.0102   -0.6809   -1.1409 C.ar      1 <0>        -0.1175
      4 C4          0.0102   -2.0630   -1.1568 C.ar      1 <0>        -0.0865
      5 C5          0.0303   -2.7676    0.0323 C.ar      1 <0>        -0.1734
      6 C6          0.0306   -2.0902    1.2373 C.ar      1 <0>        -0.0909
      7 C7          0.0146   -0.7080    1.2531 C.ar      1 <0>        -0.1180
      8 C8          0.0515   -4.2744    0.0150 C.3       1 <0>         0.0467
      9 N1          1.4432   -4.7443   -0.0024 N.4       1 <0>        -0.3825
     10 C9          1.4664   -6.2096   -0.1285 C.3       1 <0>        -0.0041
     11 C10         2.8948   -6.6486   -0.4529 C.3       1 <0>        -0.1049
     12 C11         3.8545   -6.0307    0.5319 C.ar      1 <0>        -0.0675
     13 C12         5.1306   -6.5593    0.6348 C.ar      1 <0>        -0.1318
     14 C13         6.0423   -6.0153    1.5275 C.ar      1 <0>         0.1700
     15 C14         5.6698   -4.9362    2.3190 C.ar      1 <0>        -0.1095
     16 C15         4.3976   -4.4150    2.2133 C.ar      1 <0>        -0.0701
     17 C16         3.4857   -4.9611    1.3210 C.ar      1 <0>        -0.1414
     18 C17         2.1056   -4.3625    1.2480 C.3       1 <0>         0.0449
     19 N2          7.3300   -6.5509    1.6305 N.am      1 <0>        -0.6695
     20 C18         8.3791   -5.7409    1.8748 C.2       1 <0>         0.5604
     21 O1          8.1970   -4.5584    2.0896 O.2       1 <0>        -0.4997
     22 C19         9.7513   -6.2906    1.8817 C.ar      1 <0>        -0.1080
     23 C20         9.9561   -7.6583    1.6270 C.ar      1 <0>        -0.0855
     24 C21        11.2067   -8.1862    1.6278 C.ar      1 <0>        -0.0897
     25 C22        12.3190   -7.3627    1.8859 C.ar      1 <0>        -0.0456
     26 C23        13.6197   -7.8894    1.8907 C.ar      1 <0>        -0.0211
     27 C24        14.6927   -7.0537    2.1474 C.ar      1 <0>        -0.1352
     28 C25        14.4885   -5.6867    2.4023 C.ar      1 <0>        -0.0937
     29 C26        13.2378   -5.1582    2.4020 C.ar      1 <0>        -0.0674
     30 C27        12.1255   -5.9816    2.1443 C.ar      1 <0>        -0.0247
     31 C28        10.8254   -5.4535    2.1335 C.ar      1 <0>        -0.0340
     32 C29        16.0664   -7.6042    2.1541 C.cat     1 <0>         0.5977
     33 N3         17.1026   -6.8052    2.4004 N.pl3     1 <0>        -0.7562
     34 N4         16.2661   -8.8984    1.9138 N.pl3     1 <0>        -0.7609
     35 H1          0.9890    1.8819    0.0726 H         1 <0>         0.0825
     36 H2         -0.5635    1.8690   -0.7979 H         1 <0>         0.0771
     37 H3         -0.5408    1.8489    0.9818 H         1 <0>         0.0770
     38 H4         -0.0260   -0.1303   -2.0699 H         1 <0>         0.1359
     39 H5          0.0100   -2.5923   -2.0982 H         1 <0>         0.1312
     40 H6          0.0460   -2.6407    2.1663 H         1 <0>         0.1305
     41 H7          0.0185   -0.1786    2.1945 H         1 <0>         0.1359
     42 H8         -0.4493   -4.6550    0.9052 H         1 <0>         0.1368
     43 H9         -0.4649   -4.6348   -0.8746 H         1 <0>         0.1396
     44 H10         1.1487   -6.6628    0.8106 H         1 <0>         0.1341
     45 H11         0.7973   -6.5185   -0.9316 H         1 <0>         0.1393
     46 H12         2.9627   -7.7348   -0.3925 H         1 <0>         0.1246
     47 H13         3.1528   -6.3258   -1.4616 H         1 <0>         0.1049
     48 H14         5.4167   -7.3983    0.0179 H         1 <0>         0.1383
     49 H15         6.3747   -4.5068    3.0156 H         1 <0>         0.1514
     50 H16         4.1089   -3.5760    2.8289 H         1 <0>         0.1396
     51 H17         2.1820   -3.2763    1.2969 H         1 <0>         0.1385
     52 H18         1.5141   -4.7188    2.0913 H         1 <0>         0.1372
     53 H19         7.4681   -7.5053    1.5260 H         1 <0>         0.4164
     54 H20         9.1079   -8.2967    1.4285 H         1 <0>         0.1376
     55 H21        11.3485   -9.2386    1.4308 H         1 <0>         0.1485
     56 H22        13.7823   -8.9391    1.6958 H         1 <0>         0.1467
     57 H23        15.3369   -5.0487    2.6012 H         1 <0>         0.1410
     58 H24        13.0963   -4.1060    2.5999 H         1 <0>         0.1553
     59 H25        10.6633   -4.4028    2.3239 H         1 <0>         0.1577
     60 H26        16.9571   -5.8623    2.5755 H         1 <0>         0.4457
     61 H27        15.5112   -9.4805    1.7343 H         1 <0>         0.4433
     62 H28        17.1665   -9.2593    1.9182 H         1 <0>         0.4362
     63 H29        18.0029   -7.1660    2.4048 H         1 <0>         0.4358
     64 H30         1.9300   -4.3293   -0.7828 H         1 <0>         0.4251
@<TRIPOS>BOND
     1    1    2 1
     2    1   35 1
     3    1   36 1
     4    1   37 1
     5    2    7 ar
     6    2    3 ar
     7    3    4 ar
     8    3   38 1
     9    4    5 ar
    10    4   39 1
    11    5    6 ar
    12    5    8 1
    13    6    7 ar
    14    6   40 1
    15    7   41 1
    16    8    9 1
    17    8   42 1
    18    8   43 1
    19    9   18 1
    20    9   10 1
    21    9   64 1
    22   10   11 1
    23   10   44 1
    24   10   45 1
    25   11   12 1
    26   11   46 1
    27   11   47 1
    28   12   17 ar
    29   12   13 ar
    30   13   14 ar
    31   13   48 1
    32   14   15 ar
    33   14   19 1
    34   15   16 ar
    35   15   49 1
    36   16   17 ar
    37   16   50 1
    38   17   18 1
    39   18   51 1
    40   18   52 1
    41   19   20 am
    42   19   53 1
    43   20   21 2
    44   20   22 1
    45   22   31 ar
    46   22   23 ar
    47   23   24 ar
    48   23   54 1
    49   24   25 ar
    50   24   55 1
    51   25   30 ar
    52   25   26 ar
    53   26   27 ar
    54   26   56 1
    55   27   28 ar
    56   27   32 1
    57   28   29 ar
    58   28   57 1
    59   29   30 ar
    60   29   58 1
    61   30   31 ar
    62   31   59 1
    63   32   33 2
    64   32   34 1
    65   33   60 1
    66   33   63 1
    67   34   61 1
    68   34   62 1
@<TRIPOS>MOLECULE
CHEMBL558669__1
   63    67     0     0     0
SMALL
USER_CHARGES

@<TRIPOS>ATOM
      1 C1         -0.0331    1.5012    0.0815 C.3       1 <0>        -0.1177
      2 C2         -0.0108   -0.0055    0.0642 C.ar      1 <0>        -0.0832
      3 C3         -0.0101   -0.6830   -1.1407 C.ar      1 <0>        -0.1213
      4 C4          0.0104   -2.0651   -1.1566 C.ar      1 <0>        -0.0926
      5 C5          0.0307   -2.7697    0.0325 C.ar      1 <0>        -0.0879
      6 C6          0.0310   -2.0923    1.2375 C.ar      1 <0>        -0.1113
      7 C7          0.0148   -0.7101    1.2533 C.ar      1 <0>        -0.1214
      8 C8          0.0520   -4.2765    0.0153 C.3       1 <0>         0.0938
      9 N1          1.4438   -4.7463   -0.0023 N.3       1 <0>        -0.5266
     10 C9          1.5074   -6.1979   -0.2354 C.3       1 <0>         0.0500
     11 C10         2.9436   -6.5671   -0.6076 C.3       1 <0>        -0.0755
     12 C11         3.9021   -5.9846    0.3993 C.ar      1 <0>        -0.0486
     13 C12         5.1916   -6.4890    0.4508 C.ar      1 <0>        -0.1400
     14 C13         6.1068   -5.9785    1.3592 C.ar      1 <0>         0.1330
     15 C14         5.7250   -4.9568    2.2195 C.ar      1 <0>        -0.1175
     16 C15         4.4400   -4.4600    2.1655 C.ar      1 <0>        -0.0963
     17 C16         3.5243   -4.9732    1.2572 C.ar      1 <0>        -0.0807
     18 C17         2.1304   -4.4020    1.2467 C.3       1 <0>         0.0912
     19 N2          7.4073   -6.4900    1.4092 N.am      1 <0>        -0.6618
     20 C18         8.4429   -5.6724    1.6843 C.2       1 <0>         0.5516
     21 O1          8.2390   -4.5090    1.9720 O.2       1 <0>        -0.5027
     22 C19         9.8265   -6.1904    1.6361 C.ar      1 <0>        -0.0955
     23 C20        10.0563   -7.5356    1.2971 C.ar      1 <0>        -0.0823
     24 C21        11.3179   -8.0342    1.2462 C.ar      1 <0>        -0.0932
     25 C22        12.4164   -7.2025    1.5347 C.ar      1 <0>        -0.0496
     26 C23        13.7281   -7.6990    1.4870 C.ar      1 <0>        -0.0177
     27 C24        14.7872   -6.8559    1.7755 C.ar      1 <0>        -0.1427
     28 C25        14.5579   -5.5113    2.1146 C.ar      1 <0>        -0.0973
     29 C26        13.2963   -5.0122    2.1662 C.ar      1 <0>        -0.0669
     30 C27        12.1977   -5.8438    1.8780 C.ar      1 <0>        -0.0221
     31 C28        10.8865   -5.3455    1.9197 C.ar      1 <0>        -0.0417
     32 C29        16.1723   -7.3746    1.7271 C.cat     1 <0>         0.5995
     33 N3         17.1951   -6.5684    2.0037 N.pl3     1 <0>        -0.7588
     34 N4         16.3957   -8.6475    1.4070 N.pl3     1 <0>        -0.7630
     35 H1          0.9890    1.8798    0.0727 H         1 <0>         0.0707
     36 H2         -0.5636    1.8668   -0.7977 H         1 <0>         0.0672
     37 H3         -0.5409    1.8467    0.9820 H         1 <0>         0.0667
     38 H4         -0.0260   -0.1325   -2.0698 H         1 <0>         0.1219
     39 H5          0.0102   -2.5944   -2.0980 H         1 <0>         0.1224
     40 H6          0.0465   -2.6428    2.1665 H         1 <0>         0.1175
     41 H7          0.0188   -0.1807    2.1946 H         1 <0>         0.1212
     42 H8         -0.4488   -4.6572    0.9054 H         1 <0>         0.0457
     43 H9         -0.4644   -4.6370   -0.8743 H         1 <0>         0.0876
     44 H10         1.2166   -6.7276    0.6717 H         1 <0>         0.0417
     45 H11         0.8368   -6.4675   -1.0513 H         1 <0>         0.0840
     46 H12         3.0468   -7.6521   -0.6198 H         1 <0>         0.0804
     47 H13         3.1739   -6.1721   -1.5971 H         1 <0>         0.0869
     48 H14         5.4854   -7.2831   -0.2197 H         1 <0>         0.1255
     49 H15         6.4326   -4.5526    2.9283 H         1 <0>         0.1387
     50 H16         4.1438   -3.6656    2.8345 H         1 <0>         0.1275
     51 H17         2.1853   -3.3174    1.3398 H         1 <0>         0.0934
     52 H18         1.5694   -4.8069    2.0890 H         1 <0>         0.0487
     53 H19         7.5641   -7.4332    1.2459 H         1 <0>         0.4098
     54 H20         9.2187   -8.1801    1.0748 H         1 <0>         0.1397
     55 H21        11.4788   -9.0697    0.9846 H         1 <0>         0.1470
     56 H22        13.9099   -8.7314    1.2273 H         1 <0>         0.1448
     57 H23        15.3957   -4.8672    2.3373 H         1 <0>         0.1384
     58 H24        13.1356   -3.9770    2.4286 H         1 <0>         0.1542
     59 H25        10.7052   -4.3119    2.1750 H         1 <0>         0.1578
     60 H26        17.0324   -5.6410    2.2370 H         1 <0>         0.4454
     61 H27        15.6505   -9.2349    1.2055 H         1 <0>         0.4434
     62 H28        17.3036   -8.9875    1.3752 H         1 <0>         0.4345
     63 H29        18.1030   -6.9084    1.9720 H         1 <0>         0.4340
@<TRIPOS>BOND
     1    1    2 1
     2    1   35 1
     3    1   36 1
     4    1   37 1
     5    2    7 ar
     6    2    3 ar
     7    3    4 ar
     8    3   38 1
     9    4    5 ar
    10    4   39 1
    11    5    6 ar
    12    5    8 1
    13    6    7 ar
    14    6   40 1
    15    7   41 1
    16    8    9 1
    17    8   42 1
    18    8   43 1
    19    9   18 1
    20    9   10 1
    21   10   11 1
    22   10   44 1
    23   10   45 1
    24   11   12 1
    25   11   46 1
    26   11   47 1
    27   12   17 ar
    28   12   13 ar
    29   13   14 ar
    30   13   48 1
    31   14   15 ar
    32   14   19 1
    33   15   16 ar
    34   15   49 1
    35   16   17 ar
    36   16   50 1
    37   17   18 1
    38   18   51 1
    39   18   52 1
    40   19   20 am
    41   19   53 1
    42   20   21 2
    43   20   22 1
    44   22   31 ar
    45   22   23 ar
    46   23   24 ar
    47   23   54 1
    48   24   25 ar
    49   24   55 1
    50   25   30 ar
    51   25   26 ar
    52   26   27 ar
    53   26   56 1
    54   27   28 ar
    55   27   32 1
    56   28   29 ar
    57   28   57 1
    58   29   30 ar
    59   29   58 1
    60   30   31 ar
    61   31   59 1
    62   32   33 2
    63   32   34 1
    64   33   60 1
    65   33   63 1
    66   34   61 1
    67   34   62 1
@<TRIPOS>MOLECULE
CHEMBL415741
   60    61     0     0     0
SMALL
USER_CHARGES

@<TRIPOS>ATOM
      1 C1         -0.0167    1.3781    0.0096 C.ar      1 <0>        -0.1193
      2 C2          1.1709    2.0855    0.0021 C.ar      1 <0>        -0.1162
      3 C3          2.3773    1.4107   -0.0130 C.ar      1 <0>        -0.1153
      4 C4          2.3960    0.0285   -0.0201 C.ar      1 <0>        -0.0807
      5 C5          1.2084   -0.6789   -0.0117 C.ar      1 <0>        -0.1167
      6 C6          0.0021   -0.0041    0.0020 C.ar      1 <0>        -0.1171
      7 C7          3.7112   -0.7071   -0.0376 C.3       1 <0>        -0.0718
      8 C8          4.1714   -0.9633    1.3989 C.3       1 <0>        -0.6272
      9 S1          5.7544   -1.8488    1.3779 S.o2      1 <0>         2.6091
     10 O1          5.5735   -3.1627    0.8679 O.2       1 <0>        -0.9503
     11 O2          6.7790   -1.0077    0.8660 O.2       1 <0>        -0.9426
     12 N1          6.1426   -2.0645    2.9733 N.pl3     1 <0>        -1.0947
     13 C9          5.3022   -2.9112    3.8236 C.3       1 <0>         0.1330
     14 H1          4.7745   -3.6373    3.2051 H         1 <0>         0.1349
     15 C10         4.2869   -2.0402    4.5661 C.3       1 <0>         0.0532
     16 O3          4.9749   -1.1671    5.4641 O.3       1 <0>        -0.5595
     17 C11         6.1673   -3.6363    4.8220 C.2       1 <0>         0.5325
     18 O4          7.3676   -3.4629    4.8232 O.2       1 <0>        -0.5167
     19 N2          5.6070   -4.4775    5.7137 N.am      1 <0>        -0.7192
     20 C12         6.4480   -5.1824    6.6843 C.3       1 <0>         0.1026
     21 C13         5.5835   -6.0534    7.5590 C.2       1 <0>         0.5151
     22 O5          4.3831   -6.0824    7.3884 O.2       1 <0>        -0.5239
     23 N3          6.1443   -6.8000    8.5308 N.am      1 <0>        -0.7272
     24 C14         5.3039   -7.6467    9.3811 C.3       1 <0>         0.1470
     25 C15         6.1690   -8.3718   10.3796 C.ar      1 <0>        -0.0401
     26 C16         6.7009   -9.6084   10.0603 C.ar      1 <0>        -0.0948
     27 C17         7.4934  -10.2776   10.9702 C.ar      1 <0>        -0.0576
     28 C18         7.7582   -9.7044   12.2143 C.ar      1 <0>        -0.1491
     29 C19         7.2192   -8.4569   12.5300 C.ar      1 <0>        -0.0577
     30 C20         6.4326   -7.7956   11.6094 C.ar      1 <0>        -0.0950
     31 C21         8.6069  -10.4168   13.1950 C.cat     1 <0>         0.5998
     32 N4          8.8579   -9.8673   14.3815 N.pl3     1 <0>        -0.7602
     33 N5          9.1195  -11.6075   12.8910 N.pl3     1 <0>        -0.7601
     34 H2         -0.9591    1.9053    0.0259 H         1 <0>         0.1236
     35 H3          1.1563    3.1654    0.0076 H         1 <0>         0.1247
     36 H4          3.3051    1.9634   -0.0196 H         1 <0>         0.1245
     37 H5          1.2231   -1.7588   -0.0176 H         1 <0>         0.1238
     38 H6         -0.9258   -0.5567    0.0082 H         1 <0>         0.1243
     39 H7          3.5884   -1.6586   -0.5549 H         1 <0>         0.0912
     40 H8          4.4573   -0.1052   -0.5563 H         1 <0>         0.0917
     41 H9          4.2941   -0.0118    1.9163 H         1 <0>         0.1395
     42 H10         3.4252   -1.5652    1.9176 H         1 <0>         0.1327
     43 H11         6.9264   -1.6303    3.3447 H         1 <0>         0.4315
     44 H12         3.7206   -1.4487    3.8467 H         1 <0>         0.0663
     45 H13         3.6050   -2.6771    5.1296 H         1 <0>         0.0682
     46 H14         4.3921   -0.5842    5.9697 H         1 <0>         0.3872
     47 H15         4.6470   -4.6162    5.7127 H         1 <0>         0.4127
     48 H16         7.1713   -5.8030    6.1553 H         1 <0>         0.1041
     49 H17         6.9757   -4.4564    7.3027 H         1 <0>         0.1044
     50 H18         7.1044   -6.7768    8.6672 H         1 <0>         0.4068
     51 H19         4.5806   -7.0262    9.9101 H         1 <0>         0.0920
     52 H20         4.7763   -8.3728    8.7626 H         1 <0>         0.0924
     53 H21         6.4952  -10.0511    9.0969 H         1 <0>         0.1518
     54 H22         7.9074  -11.2432   10.7200 H         1 <0>         0.1412
     55 H23         7.4204   -8.0081   13.4916 H         1 <0>         0.1411
     56 H24         6.0180   -6.8280   11.8510 H         1 <0>         0.1516
     57 H25         9.4142  -10.3343   15.0244 H         1 <0>         0.4347
     58 H26         8.9366  -12.0078   12.0266 H         1 <0>         0.4447
     59 H27         9.6758  -12.0745   13.5339 H         1 <0>         0.4347
     60 H28         8.4844   -8.9999   14.6030 H         1 <0>         0.4446
@<TRIPOS>BOND
     1    1    6 ar
     2    1    2 ar
     3    1   34 1
     4    2    3 ar
     5    2   35 1
     6    3    4 ar
     7    3   36 1
     8    4    5 ar
     9    4    7 1
    10    5    6 ar
    11    5   37 1
    12    6   38 1
    13    7    8 1
    14    7   39 1
    15    7   40 1
    16    8    9 1
    17    8   41 1
    18    8   42 1
    19    9   10 2
    20    9   11 2
    21    9   12 1
    22   12   13 1
    23   12   43 1
    24   13   14 1
    25   13   15 1
    26   13   17 1
    27   15   16 1
    28   15   44 1
    29   15   45 1
    30   16   46 1
    31   17   18 2
    32   17   19 am
    33   19   20 1
    34   19   47 1
    35   20   21 1
    36   20   48 1
    37   20   49 1
    38   21   22 2
    39   21   23 am
    40   23   24 1
    41   23   50 1
    42   24   25 1
    43   24   51 1
    44   24   52 1
    45   25   30 ar
    46   25   26 ar
    47   26   27 ar
    48   26   53 1
    49   27   28 ar
    50   27   54 1
    51   28   29 ar
    52   28   31 1
    53   29   30 ar
    54   29   55 1
    55   30   56 1
    56   31   32 2
    57   31   33 1
    58   32   57 1
    59   32   60 1
    60   33   58 1
    61   33   59 1
@<TRIPOS>MOLECULE
CHEMBL73737
   44    47     0     0     0
SMALL
USER_CHARGES

@<TRIPOS>ATOM
      1 C1         -0.0167    1.3775    0.0096 C.ar      1 <0>        -0.0663
      2 C2          1.1671    2.0883    0.0021 C.ar      1 <0>        -0.1542
      3 C3          2.3862    1.4127   -0.0131 C.ar      1 <0>        -0.0049
      4 C4          2.4064    0.0202   -0.0207 C.ar      1 <0>        -0.1814
      5 C5          1.2131   -0.6864   -0.0131 C.ar      1 <0>         0.2212
      6 C6          0.0021   -0.0041    0.0020 C.ar      1 <0>        -0.1878
      7 N1          1.2282   -2.0832   -0.0212 N.pl3     1 <0>        -0.8767
      8 C7          3.6588    2.1749   -0.0216 C.ar      1 <0>        -0.0525
      9 C8          4.6669    1.8605    0.8868 C.ar      1 <0>        -0.0522
     10 C9          5.8545    2.5691    0.8816 C.ar      1 <0>        -0.0436
     11 C10         6.0525    3.5942   -0.0225 C.ar      1 <0>        -0.0721
     12 C11         5.0528    3.9227   -0.9399 C.ar      1 <0>        -0.0759
     13 C12         3.8511    3.2057   -0.9443 C.ar      1 <0>         0.1909
     14 O1          2.8759    3.5138   -1.8364 O.3       1 <0>        -0.4595
     15 C13         5.2651    5.0195   -1.9062 C.2       1 <0>         0.3815
     16 N2          4.3933    5.4135   -2.8045 N.2       1 <0>        -0.4596
     17 C14         4.9047    6.4345   -3.5203 C.ar      1 <0>         0.1163
     18 C15         4.4067    7.2076   -4.5780 C.ar      1 <0>        -0.0510
     19 C16         5.1696    8.1981   -5.1178 C.ar      1 <0>        -0.0830
     20 C17         6.4556    8.4551   -4.6246 C.ar      1 <0>        -0.1542
     21 C18         6.9666    7.6960   -3.5732 C.ar      1 <0>        -0.0265
     22 C19         6.1965    6.6882   -3.0204 C.ar      1 <0>         0.0325
     23 N3          6.3976    5.7815   -1.9956 N.pl3     1 <0>        -0.5884
     24 C20         7.2718    9.5324   -5.2204 C.cat     1 <0>         0.6079
     25 N4          7.1195    9.8506   -6.5056 N.pl3     1 <0>        -0.7581
     26 N5          8.1603   10.1864   -4.4728 N.pl3     1 <0>        -0.7633
     27 Cl1         7.1036    2.1680    2.0186 Cl        1 <0>        -0.0447
     28 H1         -0.9600    1.9030    0.0259 H         1 <0>         0.1268
     29 H2          1.1484    3.1681    0.0077 H         1 <0>         0.1153
     30 H3          3.3484   -0.5077   -0.0329 H         1 <0>         0.1222
     31 H4         -0.9266   -0.5553    0.0082 H         1 <0>         0.1234
     32 H5          2.0733   -2.5590   -0.0321 H         1 <0>         0.3997
     33 H6          0.3934   -2.5772   -0.0159 H         1 <0>         0.4014
     34 H7          4.5204    1.0609    1.5977 H         1 <0>         0.1508
     35 H8          6.9826    4.1432   -0.0195 H         1 <0>         0.1367
     36 H9          2.2508    4.1807   -1.5210 H         1 <0>         0.3985
     37 H10         3.4168    7.0172   -4.9656 H         1 <0>         0.1552
     38 H11         4.7803    8.7900   -5.9329 H         1 <0>         0.1452
     39 H12         7.9579    7.8931   -3.1925 H         1 <0>         0.1401
     40 H13         6.4728    9.3746   -7.0497 H         1 <0>         0.4473
     41 H14         8.2711    9.9548   -3.5373 H         1 <0>         0.4445
     42 H15         8.6963   10.8939   -4.8640 H         1 <0>         0.4327
     43 H16         7.6555   10.5581   -6.8969 H         1 <0>         0.4329
     44 H17         7.1925    5.6998   -1.4456 H         1 <0>         0.4327
@<TRIPOS>BOND
     1    1    6 ar
     2    1    2 ar
     3    1   28 1
     4    2    3 ar
     5    2   29 1
     6    3    4 ar
     7    3    8 1
     8    4    5 ar
     9    4   30 1
    10    5    6 ar
    11    5    7 1
    12    6   31 1
    13    7   32 1
    14    7   33 1
    15    8   13 ar
    16    8    9 ar
    17    9   10 ar
    18    9   34 1
    19   10   11 ar
    20   10   27 1
    21   11   12 ar
    22   11   35 1
    23   12   13 ar
    24   12   15 1
    25   13   14 1
    26   14   36 1
    27   15   23 1
    28   15   16 2
    29   16   17 1
    30   17   22 ar
    31   17   18 ar
    32   18   19 ar
    33   18   37 1
    34   19   20 ar
    35   19   38 1
    36   20   21 ar
    37   20   24 1
    38   21   22 ar
    39   21   39 1
    40   22   23 1
    41   23   44 1
    42   24   25 2
    43   24   26 1
    44   25   40 1
    45   25   43 1
    46   26   41 1
    47   26   42 1
@<TRIPOS>MOLECULE
CHEMBL73737__1
   43    46     0     0     0
SMALL
USER_CHARGES

@<TRIPOS>ATOM
      1 C1         -0.0167    1.3775    0.0096 C.ar      1 <0>        -0.0812
      2 C2          1.1671    2.0883    0.0021 C.ar      1 <0>        -0.1344
      3 C3          2.3862    1.4127   -0.0136 C.ar      1 <0>         0.0485
      4 C4          2.4064    0.0202   -0.0212 C.ar      1 <0>        -0.1960
      5 C5          1.2131   -0.6864   -0.0131 C.ar      1 <0>         0.2050
      6 C6          0.0021   -0.0041    0.0020 C.ar      1 <0>        -0.2103
      7 N1          1.2282   -2.0832   -0.0212 N.pl3     1 <0>        -0.8859
      8 C7          3.6588    2.1749   -0.0226 C.ar      1 <0>        -0.1727
      9 C8          4.6673    1.8605    0.8855 C.ar      1 <0>        -0.0255
     10 C9          5.8548    2.5691    0.8798 C.ar      1 <0>        -0.1576
     11 C10         6.0522    3.5943   -0.0246 C.ar      1 <0>        -0.0211
     12 C11         5.0522    3.9226   -0.9414 C.ar      1 <0>        -0.2258
     13 C12         3.8507    3.2057   -0.9453 C.ar      1 <0>         0.3276
     14 O1          2.8751    3.5138   -1.8370 O.3       1 <0>        -0.6247
     15 C13         5.2642    5.0194   -1.9085 C.2       1 <0>         0.4148
     16 N2          6.4004    5.7783   -2.0020 N.pl3     1 <0>        -0.6044
     17 H1          7.1962    5.6922   -1.4541 H         1 <0>         0.4255
     18 C14         6.2033    6.6874   -3.0203 C.ar      1 <0>         0.0792
     19 C15         6.9840    7.6977   -3.5700 C.ar      1 <0>        -0.0915
     20 C16         6.5024    8.4532   -4.5998 C.ar      1 <0>        -0.0889
     21 C17         5.2202    8.2200   -5.1129 C.ar      1 <0>        -0.1796
     22 C18         4.4243    7.2137   -4.5767 C.ar      1 <0>        -0.0019
     23 C19         4.9124    6.4386   -3.5238 C.ar      1 <0>         0.0591
     24 N3          4.3952    5.4085   -2.8092 N.2       1 <0>        -0.4501
     25 C20         4.7112    9.0466   -6.2277 C.cat     1 <0>         0.6119
     26 N4          5.1192   10.3076   -6.3622 N.pl3     1 <0>        -0.7682
     27 N5          3.8444    8.5306   -7.0978 N.pl3     1 <0>        -0.7655
     28 Cl1         7.1044    2.1682    2.0162 Cl        1 <0>        -0.1069
     29 H2         -0.9600    1.9030    0.0259 H         1 <0>         0.1139
     30 H3          1.1484    3.1681    0.0081 H         1 <0>         0.1187
     31 H4          3.3484   -0.5077   -0.0337 H         1 <0>         0.1135
     32 H5         -0.9266   -0.5553    0.0082 H         1 <0>         0.1102
     33 H6          2.0733   -2.5590   -0.0324 H         1 <0>         0.3939
     34 H7          0.3934   -2.5772   -0.0155 H         1 <0>         0.3932
     35 H8          4.5212    1.0609    1.5965 H         1 <0>         0.1162
     36 H9          6.9822    4.1434   -0.0221 H         1 <0>         0.1029
     37 H10         7.9738    7.8855   -3.1811 H         1 <0>         0.1365
     38 H11         7.1144    9.2367   -5.0217 H         1 <0>         0.1346
     39 H12         3.4354    7.0337   -4.9718 H         1 <0>         0.1409
     40 H13         5.7503   10.6834   -5.7287 H         1 <0>         0.4443
     41 H14         3.5473    7.6124   -6.9999 H         1 <0>         0.4472
     42 H15         3.5104    9.0730   -7.8293 H         1 <0>         0.4275
     43 H16         4.7852   10.8500   -7.0937 H         1 <0>         0.4271
@<TRIPOS>BOND
     1    1    6 ar
     2    1    2 ar
     3    1   29 1
     4    2    3 ar
     5    2   30 1
     6    3    4 ar
     7    3    8 1
     8    4    5 ar
     9    4   31 1
    10    5    6 ar
    11    5    7 1
    12    6   32 1
    13    7   33 1
    14    7   34 1
    15    8   13 ar
    16    8    9 ar
    17    9   10 ar
    18    9   35 1
    19   10   11 ar
    20   10   28 1
    21   11   12 ar
    22   11   36 1
    23   12   13 ar
    24   12   15 1
    25   13   14 1
    26   15   24 2
    27   15   16 1
    28   16   17 1
    29   16   18 1
    30   18   23 ar
    31   18   19 ar
    32   19   20 ar
    33   19   37 1
    34   20   21 ar
    35   20   38 1
    36   21   22 ar
    37   21   25 1
    38   22   23 ar
    39   22   39 1
    40   23   24 1
    41   25   26 2
    42   25   27 1
    43   26   40 1
    44   26   43 1
    45   27   41 1
    46   27   42 1
@<TRIPOS>MOLECULE
CHEMBL73737__2
   44    47     0     0     0
SMALL
USER_CHARGES

@<TRIPOS>ATOM
      1 C1         -0.0167    1.3775    0.0096 C.ar      1 <0>        -0.0668
      2 C2          1.1671    2.0883    0.0021 C.ar      1 <0>        -0.1548
      3 C3          2.3862    1.4127   -0.0136 C.ar      1 <0>        -0.0036
      4 C4          2.4064    0.0202   -0.0212 C.ar      1 <0>        -0.1815
      5 C5          1.2131   -0.6864   -0.0131 C.ar      1 <0>         0.2214
      6 C6          0.0021   -0.0041    0.0020 C.ar      1 <0>        -0.1885
      7 N1          1.2282   -2.0832   -0.0212 N.pl3     1 <0>        -0.8767
      8 C7          3.6588    2.1749   -0.0226 C.ar      1 <0>        -0.0524
      9 C8          4.6673    1.8605    0.8855 C.ar      1 <0>        -0.0547
     10 C9          5.8548    2.5691    0.8798 C.ar      1 <0>        -0.0420
     11 C10         6.0522    3.5943   -0.0246 C.ar      1 <0>        -0.0739
     12 C11         5.0522    3.9226   -0.9414 C.ar      1 <0>        -0.0701
     13 C12         3.8507    3.2057   -0.9453 C.ar      1 <0>         0.1862
     14 O1          2.8751    3.5138   -1.8370 O.3       1 <0>        -0.4606
     15 C13         5.2642    5.0194   -1.9085 C.2       1 <0>         0.3632
     16 N2          6.4004    5.7783   -2.0020 N.pl3     1 <0>        -0.5865
     17 H1          7.1962    5.6922   -1.4541 H         1 <0>         0.4345
     18 C14         6.2033    6.6874   -3.0203 C.ar      1 <0>         0.0980
     19 C15         6.9840    7.6977   -3.5700 C.ar      1 <0>        -0.0890
     20 C16         6.5024    8.4532   -4.5998 C.ar      1 <0>        -0.0665
     21 C17         5.2202    8.2200   -5.1129 C.ar      1 <0>        -0.1673
     22 C18         4.4243    7.2137   -4.5767 C.ar      1 <0>         0.0149
     23 C19         4.9124    6.4386   -3.5238 C.ar      1 <0>         0.0466
     24 N3          4.3952    5.4085   -2.8092 N.2       1 <0>        -0.4474
     25 C20         4.7112    9.0466   -6.2277 C.cat     1 <0>         0.6086
     26 N4          5.1192   10.3076   -6.3622 N.pl3     1 <0>        -0.7599
     27 N5          3.8444    8.5306   -7.0978 N.pl3     1 <0>        -0.7603
     28 Cl1         7.1044    2.1682    2.0162 Cl        1 <0>        -0.0442
     29 H2         -0.9600    1.9030    0.0259 H         1 <0>         0.1262
     30 H3          1.1484    3.1681    0.0081 H         1 <0>         0.1148
     31 H4          3.3484   -0.5077   -0.0337 H         1 <0>         0.1224
     32 H5         -0.9266   -0.5553    0.0082 H         1 <0>         0.1232
     33 H6          2.0733   -2.5590   -0.0324 H         1 <0>         0.3999
     34 H7          0.3934   -2.5772   -0.0155 H         1 <0>         0.4013
     35 H8          4.5212    1.0609    1.5965 H         1 <0>         0.1503
     36 H9          6.9822    4.1434   -0.0221 H         1 <0>         0.1372
     37 H10         2.2501    4.1807   -1.5214 H         1 <0>         0.3965
     38 H11         7.9738    7.8855   -3.1811 H         1 <0>         0.1475
     39 H12         7.1144    9.2367   -5.0217 H         1 <0>         0.1459
     40 H13         3.4354    7.0337   -4.9718 H         1 <0>         0.1492
     41 H14         5.7503   10.6834   -5.7287 H         1 <0>         0.4462
     42 H15         3.5473    7.6124   -6.9999 H         1 <0>         0.4467
     43 H16         3.5104    9.0730   -7.8293 H         1 <0>         0.4329
     44 H17         4.7852   10.8500   -7.0937 H         1 <0>         0.4328
@<TRIPOS>BOND
     1    1    6 ar
     2    1    2 ar
     3    1   29 1
     4    2    3 ar
     5    2   30 1
     6    3    4 ar
     7    3    8 1
     8    4    5 ar
     9    4   31 1
    10    5    6 ar
    11    5    7 1
    12    6   32 1
    13    7   33 1
    14    7   34 1
    15    8   13 ar
    16    8    9 ar
    17    9   10 ar
    18    9   35 1
    19   10   11 ar
    20   10   28 1
    21   11   12 ar
    22   11   36 1
    23   12   13 ar
    24   12   15 1
    25   13   14 1
    26   14   37 1
    27   15   24 2
    28   15   16 1
    29   16   17 1
    30   16   18 1
    31   18   23 ar
    32   18   19 ar
    33   19   20 ar
    34   19   38 1
    35   20   21 ar
    36   20   39 1
    37   21   22 ar
    38   21   25 1
    39   22   23 ar
    40   22   40 1
    41   23   24 1
    42   25   26 2
    43   25   27 1
    44   26   41 1
    45   26   44 1
    46   27   42 1
    47   27   43 1
@<TRIPOS>MOLECULE
CHEMBL180677
   62    65     0     0     0
SMALL
USER_CHARGES

@<TRIPOS>ATOM
      1 C1          3.4168   -3.8450    2.3255 C.3       1 <0>        -0.1609
      2 C2          3.0829   -3.0010    1.1225 C.cat     1 <0>         0.5434
      3 N1          3.1407   -1.7115    1.2010 N.pl3     1 <0>        -0.7364
      4 N2          2.7179   -3.5999   -0.0544 N.pl3     1 <0>        -0.5653
      5 C3          2.6052   -5.0524   -0.2806 C.3       1 <0>         0.0896
      6 C4          1.6141   -5.1939   -1.4627 C.3       1 <0>        -0.1624
      7 C5          2.0035   -3.9771   -2.3430 C.3       1 <0>         0.0803
      8 C6          2.3677   -2.9004   -1.2993 C.3       1 <0>         0.0727
      9 O1          0.8942   -3.5521   -3.1373 O.3       1 <0>        -0.3021
     10 C7          0.7012   -4.1924   -4.3204 C.ar      1 <0>         0.1075
     11 C8         -0.2842   -3.7559   -5.1940 C.ar      1 <0>        -0.1386
     12 C9         -0.4781   -4.4082   -6.3962 C.ar      1 <0>        -0.0769
     13 C10         0.3086   -5.4954   -6.7289 C.ar      1 <0>        -0.0644
     14 C11         1.2911   -5.9326   -5.8598 C.ar      1 <0>        -0.0625
     15 C12         1.4930   -5.2800   -4.6591 C.ar      1 <0>        -0.2007
     16 C13         0.0946   -6.2054   -8.0408 C.3       1 <0>        -0.1205
     17 C14        -0.2686   -7.6679   -7.7760 C.3       1 <0>        -0.0673
     18 C15        -0.6023   -8.3466   -9.0794 C.ar      1 <0>        -0.0557
     19 C16        -1.9174   -8.3368   -9.5405 C.ar      1 <0>         0.0034
     20 C17        -2.2549   -8.9405  -10.7148 C.ar      1 <0>        -0.1227
     21 C18        -1.2646   -9.5810  -11.4714 C.ar      1 <0>        -0.0043
     22 C19        -1.5525  -10.2215  -12.6929 C.ar      1 <0>        -0.0244
     23 C20        -0.5406  -10.8216  -13.3719 C.ar      1 <0>        -0.0118
     24 N3          0.7135  -10.8192  -12.9124 N.ar      1 <0>        -0.3739
     25 C21         1.0524  -10.2377  -11.7743 C.ar      1 <0>         0.2303
     26 C22         0.0763   -9.5918  -11.0034 C.ar      1 <0>        -0.1008
     27 C23         0.3871   -8.9547   -9.7905 C.ar      1 <0>         0.0677
     28 C24         1.6872  -11.4446  -13.6493 C.cat     1 <0>         0.7322
     29 N4          1.3765  -12.4920  -14.4107 N.pl3     1 <0>        -0.7313
     30 N5          2.9431  -11.0042  -13.6032 N.pl3     1 <0>        -0.7349
     31 C25         1.3590   -6.1420   -8.8584 C.2       1 <0>         0.5067
     32 O2          1.6251   -7.0390   -9.6401 O.co2     1 <0>        -0.6968
     33 O3          2.1158   -5.1937   -8.7382 O.co2     1 <0>        -0.6475
     34 H1          2.5123   -4.0220    2.9075 H         1 <0>         0.1343
     35 H2          3.8299   -4.7986    1.9970 H         1 <0>         0.1206
     36 H3          4.1497   -3.3247    2.9422 H         1 <0>         0.1250
     37 H4          3.3991   -1.2875    2.0343 H         1 <0>         0.4500
     38 H5          3.5756   -5.4713   -0.5469 H         1 <0>         0.1079
     39 H6          2.2093   -5.5450    0.6075 H         1 <0>         0.1108
     40 H7          1.7747   -6.1302   -1.9972 H         1 <0>         0.1123
     41 H8          0.5827   -5.1137   -1.1195 H         1 <0>         0.1026
     42 H9          2.8611   -4.2150   -2.9724 H         1 <0>         0.1057
     43 H10         1.5147   -2.2438   -1.1281 H         1 <0>         0.1110
     44 H11         3.2206   -2.3197   -1.6507 H         1 <0>         0.1093
     45 H12        -0.8995   -2.9072   -4.9342 H         1 <0>         0.1307
     46 H13        -1.2451   -4.0688   -7.0766 H         1 <0>         0.1285
     47 H14         1.9041   -6.7823   -6.1218 H         1 <0>         0.1203
     48 H15         2.2635   -5.6191   -3.9825 H         1 <0>         0.1229
     49 H16        -0.7159   -5.7229   -8.5871 H         1 <0>         0.0821
     50 H17         0.5767   -8.1734   -7.3091 H         1 <0>         0.0844
     51 H18        -1.1314   -7.7133   -7.1114 H         1 <0>         0.0815
     52 H19        -2.6812   -7.8433   -8.9578 H         1 <0>         0.1574
     53 H20        -3.2783   -8.9257  -11.0595 H         1 <0>         0.1624
     54 H21        -2.5598  -10.2354  -13.0822 H         1 <0>         0.1954
     55 H22        -0.7560  -11.3142  -14.3085 H         1 <0>         0.2019
     56 H23         2.0790  -10.2603  -11.4396 H         1 <0>         0.2196
     57 H24         1.4026   -8.9504   -9.4229 H         1 <0>         0.1863
     58 H25         0.4617  -12.8128  -14.4443 H         1 <0>         0.4555
     59 H26         3.1694  -10.2413  -13.0486 H         1 <0>         0.4567
     60 H27         3.6315  -11.4464  -14.1242 H         1 <0>         0.4628
     61 H28         2.9258   -1.1683    0.4267 H         1 <0>         0.4290
     62 H29         2.0649  -12.9341  -14.9317 H         1 <0>         0.4616
@<TRIPOS>BOND
     1    1    2 1
     2    1   34 1
     3    1   35 1
     4    1   36 1
     5    2    3 2
     6    2    4 1
     7    3   37 1
     8    3   61 1
     9    4    8 1
    10    4    5 1
    11    5    6 1
    12    5   38 1
    13    5   39 1
    14    6    7 1
    15    6   40 1
    16    6   41 1
    17    7    8 1
    18    7    9 1
    19    7   42 1
    20    8   43 1
    21    8   44 1
    22    9   10 1
    23   10   15 ar
    24   10   11 ar
    25   11   12 ar
    26   11   45 1
    27   12   13 ar
    28   12   46 1
    29   13   14 ar
    30   13   16 1
    31   14   15 ar
    32   14   47 1
    33   15   48 1
    34   16   17 1
    35   16   31 1
    36   16   49 1
    37   17   18 1
    38   17   50 1
    39   17   51 1
    40   18   27 ar
    41   18   19 ar
    42   19   20 ar
    43   19   52 1
    44   20   21 ar
    45   20   53 1
    46   21   26 ar
    47   21   22 ar
    48   22   23 ar
    49   22   54 1
    50   23   24 ar
    51   23   55 1
    52   24   25 ar
    53   24   28 1
    54   25   26 ar
    55   25   56 1
    56   26   27 ar
    57   27   57 1
    58   28   29 2
    59   28   30 1
    60   29   58 1
    61   29   62 1
    62   30   59 1
    63   30   60 1
    64   31   32 2
    65   31   33 1
@<TRIPOS>MOLECULE
CHEMBL180677__1
   62    65     0     0     0
SMALL
USER_CHARGES

@<TRIPOS>ATOM
      1 C1          3.4168   -3.8450    2.3255 C.3       1 <0>        -0.1615
      2 C2          3.0829   -3.0010    1.1225 C.cat     1 <0>         0.5436
      3 N1          3.1407   -1.7115    1.2010 N.pl3     1 <0>        -0.7379
      4 N2          2.7179   -3.5999   -0.0544 N.pl3     1 <0>        -0.5644
      5 C3          2.6052   -5.0524   -0.2806 C.3       1 <0>         0.0892
      6 C4          1.6141   -5.1939   -1.4627 C.3       1 <0>        -0.1645
      7 C5          2.0035   -3.9771   -2.3430 C.3       1 <0>         0.0808
      8 C6          2.3677   -2.9004   -1.2993 C.3       1 <0>         0.0739
      9 O1          0.8942   -3.5521   -3.1373 O.3       1 <0>        -0.3033
     10 C7          0.7012   -4.1924   -4.3204 C.ar      1 <0>         0.1085
     11 C8         -0.2842   -3.7559   -5.1940 C.ar      1 <0>        -0.1465
     12 C9         -0.4781   -4.4082   -6.3962 C.ar      1 <0>        -0.0807
     13 C10         0.3086   -5.4954   -6.7289 C.ar      1 <0>        -0.0830
     14 C11         1.2911   -5.9326   -5.8598 C.ar      1 <0>        -0.0528
     15 C12         1.4930   -5.2800   -4.6591 C.ar      1 <0>        -0.2058
     16 C13         0.0946   -6.2054   -8.0408 C.3       1 <0>        -0.1168
     17 C14         1.3783   -6.1410   -8.8709 C.3       1 <0>        -0.0798
     18 C15         1.1283   -6.7422  -10.2300 C.ar      1 <0>        -0.0119
     19 C16         1.3364   -8.1063  -10.4250 C.ar      1 <0>         0.0336
     20 C17         1.1203   -8.6834  -11.6406 C.ar      1 <0>        -0.1105
     21 C18         0.6815   -7.8936  -12.7117 C.ar      1 <0>         0.0210
     22 C19         0.4407   -8.4333  -13.9906 C.ar      1 <0>        -0.0239
     23 C20         0.0160   -7.6061  -14.9809 C.ar      1 <0>         0.0064
     24 N3         -0.1776   -6.3011  -14.7728 N.ar      1 <0>        -0.3660
     25 C21         0.0296   -5.7302  -13.5983 C.ar      1 <0>         0.2039
     26 C22         0.4685   -6.5033  -12.5148 C.ar      1 <0>        -0.0755
     27 C23         0.6973   -5.9447  -11.2462 C.ar      1 <0>        -0.0683
     28 C24        -0.6075   -5.5231  -15.8179 C.cat     1 <0>         0.7319
     29 N4         -0.2751   -5.8431  -17.0670 N.pl3     1 <0>        -0.7262
     30 N5         -1.3572   -4.4479  -15.5831 N.pl3     1 <0>        -0.7338
     31 C25        -0.2632   -7.6459   -7.7799 C.2       1 <0>         0.4959
     32 O2         -1.3293   -8.0897   -8.1710 O.co2     1 <0>        -0.6841
     33 O3          0.5135   -8.3675   -7.1778 O.co2     1 <0>        -0.6769
     34 H1          2.5123   -4.0220    2.9075 H         1 <0>         0.1347
     35 H2          3.8299   -4.7986    1.9970 H         1 <0>         0.1214
     36 H3          4.1497   -3.3247    2.9422 H         1 <0>         0.1248
     37 H4          3.3991   -1.2875    2.0343 H         1 <0>         0.4497
     38 H5          3.5756   -5.4713   -0.5469 H         1 <0>         0.1091
     39 H6          2.2093   -5.5450    0.6075 H         1 <0>         0.1118
     40 H7          1.7747   -6.1302   -1.9972 H         1 <0>         0.1155
     41 H8          0.5827   -5.1137   -1.1195 H         1 <0>         0.1032
     42 H9          2.8611   -4.2150   -2.9724 H         1 <0>         0.1053
     43 H10         1.5147   -2.2438   -1.1281 H         1 <0>         0.1101
     44 H11         3.2206   -2.3197   -1.6507 H         1 <0>         0.1078
     45 H12        -0.8995   -2.9072   -4.9342 H         1 <0>         0.1290
     46 H13        -1.2451   -4.0688   -7.0766 H         1 <0>         0.1269
     47 H14         1.9041   -6.7823   -6.1218 H         1 <0>         0.1418
     48 H15         2.2635   -5.6191   -3.9825 H         1 <0>         0.1241
     49 H16        -0.7159   -5.7229   -8.5871 H         1 <0>         0.0732
     50 H17         1.6858   -5.1015   -8.9844 H         1 <0>         0.0838
     51 H18         2.1660   -6.6999   -8.3657 H         1 <0>         0.1004
     52 H19         1.6747   -8.7157   -9.6000 H         1 <0>         0.1750
     53 H20         1.2865   -9.7417  -11.7775 H         1 <0>         0.1722
     54 H21         0.5913   -9.4857  -14.1804 H         1 <0>         0.2032
     55 H22        -0.1697   -8.0147  -15.9632 H         1 <0>         0.2080
     56 H23        -0.1390   -4.6706  -13.4742 H         1 <0>         0.2201
     57 H24         0.5361   -4.8900  -11.0791 H         1 <0>         0.1661
     58 H25         0.2710   -6.6263  -17.2380 H         1 <0>         0.4570
     59 H26        -1.5994   -4.2148  -14.6732 H         1 <0>         0.4550
     60 H27        -1.6612   -3.8978  -16.3220 H         1 <0>         0.4646
     61 H28         2.9258   -1.1683    0.4267 H         1 <0>         0.4280
     62 H29        -0.5791   -5.2931  -17.8058 H         1 <0>         0.4637
@<TRIPOS>BOND
     1    1    2 1
     2    1   34 1
     3    1   35 1
     4    1   36 1
     5    2    3 2
     6    2    4 1
     7    3   37 1
     8    3   61 1
     9    4    8 1
    10    4    5 1
    11    5    6 1
    12    5   38 1
    13    5   39 1
    14    6    7 1
    15    6   40 1
    16    6   41 1
    17    7    8 1
    18    7    9 1
    19    7   42 1
    20    8   43 1
    21    8   44 1
    22    9   10 1
    23   10   15 ar
    24   10   11 ar
    25   11   12 ar
    26   11   45 1
    27   12   13 ar
    28   12   46 1
    29   13   14 ar
    30   13   16 1
    31   14   15 ar
    32   14   47 1
    33   15   48 1
    34   16   17 1
    35   16   31 1
    36   16   49 1
    37   17   18 1
    38   17   50 1
    39   17   51 1
    40   18   27 ar
    41   18   19 ar
    42   19   20 ar
    43   19   52 1
    44   20   21 ar
    45   20   53 1
    46   21   26 ar
    47   21   22 ar
    48   22   23 ar
    49   22   54 1
    50   23   24 ar
    51   23   55 1
    52   24   25 ar
    53   24   28 1
    54   25   26 ar
    55   25   56 1
    56   26   27 ar
    57   27   57 1
    58   28   29 2
    59   28   30 1
    60   29   58 1
    61   29   62 1
    62   30   59 1
    63   30   60 1
    64   31   32 2
    65   31   33 1
@<TRIPOS>MOLECULE
CHEMBL180677__2
   62    65     0     0     0
SMALL
USER_CHARGES

@<TRIPOS>ATOM
      1 C1          0.3937    1.1876    0.4593 C.3       1 <0>        -0.1608
      2 C2          0.2064   -0.3001    0.3092 C.cat     1 <0>         0.5444
      3 N1          0.0323   -1.0388    1.3563 N.pl3     1 <0>        -0.7369
      4 N2          0.2204   -0.8701   -0.9366 N.pl3     1 <0>        -0.5654
      5 C3          0.4142   -0.1524   -2.2050 C.3       1 <0>         0.0906
      6 C4          0.3818   -1.2027   -3.3353 C.3       1 <0>        -0.1616
      7 C5          0.7372   -2.5198   -2.5960 C.3       1 <0>         0.0789
      8 C6          0.0502   -2.3054   -1.2267 C.3       1 <0>         0.0763
      9 O1          0.1897   -3.6519   -3.2747 O.3       1 <0>        -0.2988
     10 C7          0.9232   -4.1756   -4.2919 C.ar      1 <0>         0.1077
     11 C8          2.0934   -3.5508   -4.6980 C.ar      1 <0>        -0.2019
     12 C9          2.8374   -4.0854   -5.7320 C.ar      1 <0>        -0.0794
     13 C10         2.4165   -5.2418   -6.3622 C.ar      1 <0>        -0.0640
     14 C11         1.2503   -5.8661   -5.9596 C.ar      1 <0>        -0.0606
     15 C12         0.5060   -5.3389   -4.9221 C.ar      1 <0>        -0.1373
     16 C13         3.2298   -5.8226   -7.4902 C.3       1 <0>        -0.1197
     17 C14         2.3782   -5.8719   -8.7602 C.3       1 <0>        -0.0685
     18 C15         3.2262   -6.3369   -9.9160 C.ar      1 <0>        -0.0554
     19 C16         3.9143   -5.3983  -10.6826 C.ar      1 <0>         0.0027
     20 C17         4.6903   -5.7833  -11.7347 C.ar      1 <0>        -0.1233
     21 C18         4.7990   -7.1440  -12.0512 C.ar      1 <0>        -0.0045
     22 C19         5.5860   -7.6023  -13.1262 C.ar      1 <0>        -0.0248
     23 C20         5.6437   -8.9368  -13.3729 C.ar      1 <0>        -0.0116
     24 N3          4.9765   -9.8199  -12.6256 N.ar      1 <0>        -0.3739
     25 C21         4.2201   -9.4582  -11.6032 C.ar      1 <0>         0.2312
     26 C22         4.0987   -8.1020  -11.2708 C.ar      1 <0>        -0.1009
     27 C23         3.3122   -7.6679  -10.1908 C.ar      1 <0>         0.0683
     28 C24         5.0795  -11.1536  -12.9307 C.cat     1 <0>         0.7321
     29 N4          5.2852  -11.5345  -14.1900 N.pl3     1 <0>        -0.7314
     30 N5          4.9737  -12.0670  -11.9676 N.pl3     1 <0>        -0.7345
     31 C25         3.6700   -7.2171   -7.1260 C.2       1 <0>         0.5064
     32 O2          3.8371   -8.0512   -7.9993 O.co2     1 <0>        -0.6959
     33 O3          3.8590   -7.5111   -5.9579 O.co2     1 <0>        -0.6474
     34 H1          1.4549    1.4110    0.5688 H         1 <0>         0.1346
     35 H2          0.0053    1.6937   -0.4245 H         1 <0>         0.1211
     36 H3         -0.1436    1.5343    1.3420 H         1 <0>         0.1249
     37 H4          0.0223   -0.6353    2.2383 H         1 <0>         0.4503
     38 H5         -0.3886    0.5709   -2.3481 H         1 <0>         0.1072
     39 H6          1.3780    0.3566   -2.1995 H         1 <0>         0.1046
     40 H7         -0.6132   -1.2644   -3.7761 H         1 <0>         0.1053
     41 H8          1.1282   -0.9739   -4.0959 H         1 <0>         0.1093
     42 H9          1.8158   -2.6219   -2.4765 H         1 <0>         0.1016
     43 H10         0.5365   -2.9078   -0.4594 H         1 <0>         0.1054
     44 H11        -1.0085   -2.5562   -1.2927 H         1 <0>         0.1176
     45 H12         2.4222   -2.6471   -4.2065 H         1 <0>         0.1226
     46 H13         3.7485   -3.5994   -6.0485 H         1 <0>         0.1225
     47 H14         0.9234   -6.7691   -6.4537 H         1 <0>         0.1262
     48 H15        -0.4025   -5.8294   -4.6051 H         1 <0>         0.1309
     49 H16         4.1065   -5.1988   -7.6646 H         1 <0>         0.0806
     50 H17         1.5497   -6.5653   -8.6154 H         1 <0>         0.0862
     51 H18         1.9865   -4.8774   -8.9740 H         1 <0>         0.0814
     52 H19         3.8311   -4.3494  -10.4392 H         1 <0>         0.1566
     53 H20         5.2174   -5.0448  -12.3206 H         1 <0>         0.1619
     54 H21         6.1332   -6.9050  -13.7432 H         1 <0>         0.1951
     55 H22         6.2453   -9.2933  -14.1960 H         1 <0>         0.2019
     56 H23         3.6970  -10.2060  -11.0256 H         1 <0>         0.2200
     57 H24         2.7768   -8.3841   -9.5852 H         1 <0>         0.1869
     58 H25         5.3623  -10.8691  -14.8916 H         1 <0>         0.4554
     59 H26         4.8238  -11.7895  -11.0503 H         1 <0>         0.4568
     60 H27         5.0465  -13.0099  -12.1833 H         1 <0>         0.4629
     61 H28        -0.0883   -1.9964    1.2597 H         1 <0>         0.4285
     62 H29         5.3581  -12.4774  -14.4057 H         1 <0>         0.4616
@<TRIPOS>BOND
     1    1    2 1
     2    1   34 1
     3    1   35 1
     4    1   36 1
     5    2    3 2
     6    2    4 1
     7    3   37 1
     8    3   61 1
     9    4    8 1
    10    4    5 1
    11    5    6 1
    12    5   38 1
    13    5   39 1
    14    6    7 1
    15    6   40 1
    16    6   41 1
    17    7    8 1
    18    7    9 1
    19    7   42 1
    20    8   43 1
    21    8   44 1
    22    9   10 1
    23   10   15 ar
    24   10   11 ar
    25   11   12 ar
    26   11   45 1
    27   12   13 ar
    28   12   46 1
    29   13   14 ar
    30   13   16 1
    31   14   15 ar
    32   14   47 1
    33   15   48 1
    34   16   17 1
    35   16   31 1
    36   16   49 1
    37   17   18 1
    38   17   50 1
    39   17   51 1
    40   18   27 ar
    41   18   19 ar
    42   19   20 ar
    43   19   52 1
    44   20   21 ar
    45   20   53 1
    46   21   26 ar
    47   21   22 ar
    48   22   23 ar
    49   22   54 1
    50   23   24 ar
    51   23   55 1
    52   24   25 ar
    53   24   28 1
    54   25   26 ar
    55   25   56 1
    56   26   27 ar
    57   27   57 1
    58   28   29 2
    59   28   30 1
    60   29   58 1
    61   29   62 1
    62   30   59 1
    63   30   60 1
    64   31   32 2
    65   31   33 1
@<TRIPOS>MOLECULE
CHEMBL180677__3
   62    65     0     0     0
SMALL
USER_CHARGES

@<TRIPOS>ATOM
      1 C1          0.3937    1.1876    0.4593 C.3       1 <0>        -0.1609
      2 C2          0.2064   -0.3001    0.3092 C.cat     1 <0>         0.5440
      3 N1          0.0323   -1.0388    1.3563 N.pl3     1 <0>        -0.7379
      4 N2          0.2204   -0.8701   -0.9366 N.pl3     1 <0>        -0.5645
      5 C3          0.4142   -0.1524   -2.2050 C.3       1 <0>         0.0906
      6 C4          0.3818   -1.2027   -3.3353 C.3       1 <0>        -0.1636
      7 C5          0.7372   -2.5198   -2.5960 C.3       1 <0>         0.0800
      8 C6          0.0502   -2.3054   -1.2267 C.3       1 <0>         0.0763
      9 O1          0.1897   -3.6519   -3.2747 O.3       1 <0>        -0.2982
     10 C7          0.9232   -4.1756   -4.2919 C.ar      1 <0>         0.1085
     11 C8          2.0934   -3.5508   -4.6980 C.ar      1 <0>        -0.2093
     12 C9          2.8374   -4.0854   -5.7320 C.ar      1 <0>        -0.0833
     13 C10         2.4165   -5.2418   -6.3622 C.ar      1 <0>        -0.0820
     14 C11         1.2503   -5.8661   -5.9596 C.ar      1 <0>        -0.0513
     15 C12         0.5060   -5.3389   -4.9221 C.ar      1 <0>        -0.1420
     16 C13         3.2298   -5.8226   -7.4902 C.3       1 <0>        -0.1162
     17 C14         3.6767   -7.2383   -7.1204 C.3       1 <0>        -0.0808
     18 C15         4.5907   -7.7728   -8.1928 C.ar      1 <0>        -0.0109
     19 C16         4.0482   -8.4670   -9.2725 C.ar      1 <0>         0.0345
     20 C17         4.8450   -8.9640  -10.2602 C.ar      1 <0>        -0.1101
     21 C18         6.2315   -8.7741  -10.1901 C.ar      1 <0>         0.0211
     22 C19         7.1055   -9.2638  -11.1807 C.ar      1 <0>        -0.0234
     23 C20         8.4386   -9.0410  -11.0458 C.ar      1 <0>         0.0059
     24 N3          8.9382   -8.3727  -10.0029 N.ar      1 <0>        -0.3661
     25 C21         8.1752   -7.8869   -9.0385 C.ar      1 <0>         0.2025
     26 C22         6.7862   -8.0664   -9.0907 C.ar      1 <0>        -0.0752
     27 C23         5.9329   -7.5646   -8.0939 C.ar      1 <0>        -0.0694
     28 C24        10.2951   -8.1835   -9.9293 C.cat     1 <0>         0.7321
     29 N4         11.1223   -9.0807  -10.4621 N.pl3     1 <0>        -0.7259
     30 N5         10.7848   -7.1026   -9.3250 N.pl3     1 <0>        -0.7345
     31 C25         2.3910   -5.8712   -8.7412 C.2       1 <0>         0.4949
     32 O2          2.7446   -5.2620   -9.7363 O.co2     1 <0>        -0.6854
     33 O3          1.3587   -6.5198   -8.7581 O.co2     1 <0>        -0.6735
     34 H1          1.4549    1.4110    0.5688 H         1 <0>         0.1339
     35 H2          0.0053    1.6937   -0.4245 H         1 <0>         0.1216
     36 H3         -0.1436    1.5343    1.3420 H         1 <0>         0.1250
     37 H4          0.0223   -0.6353    2.2383 H         1 <0>         0.4500
     38 H5         -0.3886    0.5709   -2.3481 H         1 <0>         0.1080
     39 H6          1.3780    0.3566   -2.1995 H         1 <0>         0.1042
     40 H7         -0.6132   -1.2644   -3.7761 H         1 <0>         0.1070
     41 H8          1.1282   -0.9739   -4.0959 H         1 <0>         0.1099
     42 H9          1.8158   -2.6219   -2.4765 H         1 <0>         0.0997
     43 H10         0.5365   -2.9078   -0.4594 H         1 <0>         0.1044
     44 H11        -1.0085   -2.5562   -1.2927 H         1 <0>         0.1184
     45 H12         2.4222   -2.6471   -4.2065 H         1 <0>         0.1213
     46 H13         3.7485   -3.5994   -6.0485 H         1 <0>         0.1209
     47 H14         0.9234   -6.7691   -6.4537 H         1 <0>         0.1473
     48 H15        -0.4025   -5.8294   -4.6051 H         1 <0>         0.1322
     49 H16         4.1065   -5.1988   -7.6646 H         1 <0>         0.0719
     50 H17         4.2079   -7.2148   -6.1688 H         1 <0>         0.0835
     51 H18         2.8029   -7.8840   -7.0329 H         1 <0>         0.1023
     52 H19         2.9797   -8.6138   -9.3272 H         1 <0>         0.1759
     53 H20         4.4109   -9.5008  -11.0908 H         1 <0>         0.1727
     54 H21         6.7224   -9.8071  -12.0319 H         1 <0>         0.2034
     55 H22         9.1129   -9.4146  -11.8021 H         1 <0>         0.2079
     56 H23         8.6213   -7.3529   -8.2124 H         1 <0>         0.2195
     57 H24         6.3386   -7.0209   -7.2536 H         1 <0>         0.1653
     58 H25        10.7656   -9.8680  -10.9022 H         1 <0>         0.4572
     59 H26        10.1822   -6.4491   -8.9369 H         1 <0>         0.4546
     60 H27        11.7441   -6.9688   -9.2730 H         1 <0>         0.4643
     61 H28        -0.0883   -1.9964    1.2597 H         1 <0>         0.4281
     62 H29        12.0816   -8.9469  -10.4100 H         1 <0>         0.4636
@<TRIPOS>BOND
     1    1    2 1
     2    1   34 1
     3    1   35 1
     4    1   36 1
     5    2    3 2
     6    2    4 1
     7    3   37 1
     8    3   61 1
     9    4    8 1
    10    4    5 1
    11    5    6 1
    12    5   38 1
    13    5   39 1
    14    6    7 1
    15    6   40 1
    16    6   41 1
    17    7    8 1
    18    7    9 1
    19    7   42 1
    20    8   43 1
    21    8   44 1
    22    9   10 1
    23   10   15 ar
    24   10   11 ar
    25   11   12 ar
    26   11   45 1
    27   12   13 ar
    28   12   46 1
    29   13   14 ar
    30   13   16 1
    31   14   15 ar
    32   14   47 1
    33   15   48 1
    34   16   17 1
    35   16   31 1
    36   16   49 1
    37   17   18 1
    38   17   50 1
    39   17   51 1
    40   18   27 ar
    41   18   19 ar
    42   19   20 ar
    43   19   52 1
    44   20   21 ar
    45   20   53 1
    46   21   26 ar
    47   21   22 ar
    48   22   23 ar
    49   22   54 1
    50   23   24 ar
    51   23   55 1
    52   24   25 ar
    53   24   28 1
    54   25   26 ar
    55   25   56 1
    56   26   27 ar
    57   27   57 1
    58   28   29 2
    59   28   30 1
    60   29   58 1
    61   29   62 1
    62   30   59 1
    63   30   60 1
    64   31   32 2
    65   31   33 1
@<TRIPOS>MOLECULE
CHEMBL49987
   53    57     0     0     0
SMALL
USER_CHARGES

@<TRIPOS>ATOM
      1 C1         -0.0167    1.3781    0.0096 C.ar      1 <0>        -0.1181
      2 C2          1.1709    2.0855    0.0021 C.ar      1 <0>        -0.1240
      3 C3          2.3773    1.4107   -0.0130 C.ar      1 <0>        -0.1268
      4 C4          2.3960    0.0285   -0.0201 C.ar      1 <0>        -0.0848
      5 C5          1.2084   -0.6789   -0.0117 C.ar      1 <0>        -0.0983
      6 C6          0.0021   -0.0041    0.0020 C.ar      1 <0>        -0.0923
      7 C7          3.7112   -0.7071   -0.0376 C.3       1 <0>        -0.0094
      8 C8          4.1644   -0.9594    1.3773 C.2       1 <0>        -0.1023
      9 C9          4.9948   -0.0770    2.1968 C.ar      1 <0>        -0.1049
     10 C10         5.5898    1.1652    1.9780 C.ar      1 <0>         0.0201
     11 C11         6.3383    1.7519    2.9925 C.ar      1 <0>        -0.1953
     12 C12         6.4903    1.0963    4.2218 C.ar      1 <0>        -0.0606
     13 C13         5.9099   -0.1185    4.4394 C.ar      1 <0>        -0.1112
     14 C14         5.1554   -0.7258    3.4380 C.ar      1 <0>         0.1555
     15 N1          4.4697   -1.9160    3.3711 N.pl3     1 <0>        -0.5673
     16 H1          4.4106   -2.5660    4.0886 H         1 <0>         0.4271
     17 C15         3.8757   -2.0453    2.1367 C.2       1 <0>         0.1510
     18 C16         3.0513   -3.1933    1.7036 C.ar      1 <0>        -0.0827
     19 C17         1.8295   -3.4533    2.3255 C.ar      1 <0>        -0.0527
     20 C18         1.0642   -4.5260    1.9175 C.ar      1 <0>        -0.0519
     21 C19         1.5033   -5.3468    0.8931 C.ar      1 <0>        -0.0448
     22 C20         2.7124   -5.0995    0.2695 C.ar      1 <0>        -0.1170
     23 C21         3.4896   -4.0215    0.6639 C.ar      1 <0>         0.1501
     24 O1          4.6748   -3.7737    0.0480 O.3       1 <0>        -0.4775
     25 Br1         3.3028   -6.2284   -1.1280 Br        1 <0>        -0.0313
     26 C22        -0.2551   -4.8056    2.5900 C.3       1 <0>         0.0317
     27 C23        -1.3534   -4.0688    1.8675 C.2       1 <0>         0.0474
     28 N2         -2.0751   -4.5231    0.8533 N.2       1 <0>        -0.3799
     29 N3         -2.9062   -3.5954    0.5200 N.2       1 <0>        -0.1927
     30 N4         -2.7299   -2.5781    1.2894 N.2       1 <0>        -0.1945
     31 N5         -1.7873   -2.8442    2.1280 N.2       1 <0>        -0.3812
     32 C24         6.9748    3.0678    2.7740 C.cat     1 <0>         0.6061
     33 N6          7.6920    3.6304    3.7455 N.pl3     1 <0>        -0.7705
     34 N7          6.8311    3.6913    1.6055 N.pl3     1 <0>        -0.7708
     35 H2         -0.9591    1.9053    0.0259 H         1 <0>         0.1212
     36 H3          1.1563    3.1654    0.0076 H         1 <0>         0.1159
     37 H4          3.3051    1.9634   -0.0196 H         1 <0>         0.1066
     38 H5          1.2231   -1.7588   -0.0176 H         1 <0>         0.1152
     39 H6         -0.9258   -0.5567    0.0082 H         1 <0>         0.1305
     40 H7          3.5884   -1.6586   -0.5549 H         1 <0>         0.0948
     41 H8          4.4573   -0.1052   -0.5563 H         1 <0>         0.0782
     42 H9          5.4705    1.6669    1.0290 H         1 <0>         0.1346
     43 H10         7.0734    1.5579    5.0050 H         1 <0>         0.1348
     44 H11         6.0360   -0.6119    5.3918 H         1 <0>         0.1421
     45 H12         1.4837   -2.8157    3.1256 H         1 <0>         0.1358
     46 H13         0.8985   -6.1849    0.5795 H         1 <0>         0.1453
     47 H14         5.4304   -4.2189    0.4554 H         1 <0>         0.3888
     48 H15        -0.4571   -5.8764    2.5629 H         1 <0>         0.0843
     49 H16        -0.2131   -4.4699    3.6262 H         1 <0>         0.0816
     50 H17         8.1097    4.4940    3.6020 H         1 <0>         0.4291
     51 H18         6.3089    3.2817    0.8981 H         1 <0>         0.4428
     52 H19         7.2488    4.5550    1.4620 H         1 <0>         0.4298
     53 H20         7.7966    3.1764    4.5963 H         1 <0>         0.4424
@<TRIPOS>BOND
     1    1    6 ar
     2    1    2 ar
     3    1   35 1
     4    2    3 ar
     5    2   36 1
     6    3    4 ar
     7    3   37 1
     8    4    5 ar
     9    4    7 1
    10    5    6 ar
    11    5   38 1
    12    6   39 1
    13    7    8 1
    14    7   40 1
    15    7   41 1
    16    8   17 2
    17    8    9 1
    18    9   14 ar
    19    9   10 ar
    20   10   11 ar
    21   10   42 1
    22   11   12 ar
    23   11   32 1
    24   12   13 ar
    25   12   43 1
    26   13   14 ar
    27   13   44 1
    28   14   15 1
    29   15   16 1
    30   15   17 1
    31   17   18 1
    32   18   23 ar
    33   18   19 ar
    34   19   20 ar
    35   19   45 1
    36   20   21 ar
    37   20   26 1
    38   21   22 ar
    39   21   46 1
    40   22   23 ar
    41   22   25 1
    42   23   24 1
    43   24   47 1
    44   26   48 1
    45   26   49 1
    46   26   27 1
    47   27   28 2
    48   27   31 1
    49   28   29 1
    50   29   30 2
    51   30   31 1
    52   32   33 2
    53   32   34 1
    54   33   50 1
    55   33   53 1
    56   34   51 1
    57   34   52 1
@<TRIPOS>MOLECULE
CHEMBL49987__1
   52    56     0     0     0
SMALL
USER_CHARGES

@<TRIPOS>ATOM
      1 C1         -0.0167    1.3781    0.0096 C.ar      1 <0>        -0.1286
      2 C2          1.1709    2.0855    0.0021 C.ar      1 <0>        -0.1316
      3 C3          2.3773    1.4107   -0.0130 C.ar      1 <0>        -0.1323
      4 C4          2.3960    0.0285   -0.0201 C.ar      1 <0>        -0.0708
      5 C5          1.2084   -0.6789   -0.0117 C.ar      1 <0>        -0.0908
      6 C6          0.0021   -0.0041    0.0020 C.ar      1 <0>        -0.0944
      7 C7          3.7112   -0.7071   -0.0376 C.3       1 <0>        -0.0019
      8 C8          4.1644   -0.9594    1.3773 C.2       1 <0>        -0.1399
      9 C9          4.9948   -0.0770    2.1968 C.ar      1 <0>        -0.0927
     10 C10         5.5898    1.1652    1.9780 C.ar      1 <0>         0.0113
     11 C11         6.3383    1.7519    2.9925 C.ar      1 <0>        -0.2072
     12 C12         6.4903    1.0963    4.2218 C.ar      1 <0>        -0.0785
     13 C13         5.9099   -0.1185    4.4394 C.ar      1 <0>        -0.1111
     14 C14         5.1554   -0.7258    3.4380 C.ar      1 <0>         0.1396
     15 N1          4.4697   -1.9160    3.3711 N.pl3     1 <0>        -0.5672
     16 H1          4.4106   -2.5660    4.0886 H         1 <0>         0.4212
     17 C15         3.8757   -2.0453    2.1367 C.2       1 <0>         0.2393
     18 C16         3.0513   -3.1933    1.7036 C.ar      1 <0>        -0.2446
     19 C17         1.8295   -3.4533    2.3255 C.ar      1 <0>        -0.0089
     20 C18         1.0642   -4.5260    1.9175 C.ar      1 <0>        -0.1894
     21 C19         1.5033   -5.3468    0.8931 C.ar      1 <0>        -0.0039
     22 C20         2.7124   -5.0995    0.2695 C.ar      1 <0>        -0.2228
     23 C21         3.4896   -4.0215    0.6639 C.ar      1 <0>         0.3189
     24 O1          4.6748   -3.7737    0.0480 O.3       1 <0>        -0.6902
     25 Br1         3.3028   -6.2284   -1.1280 Br        1 <0>        -0.0970
     26 C22        -0.2551   -4.8056    2.5900 C.3       1 <0>         0.0532
     27 C23        -1.3534   -4.0688    1.8675 C.2       1 <0>         0.0694
     28 N2         -2.0751   -4.5231    0.8533 N.2       1 <0>        -0.3887
     29 N3         -2.9062   -3.5954    0.5200 N.2       1 <0>        -0.2079
     30 N4         -2.7299   -2.5781    1.2894 N.2       1 <0>        -0.2089
     31 N5         -1.7873   -2.8442    2.1280 N.2       1 <0>        -0.3897
     32 C24         6.9748    3.0678    2.7740 C.cat     1 <0>         0.6061
     33 N6          7.6920    3.6304    3.7455 N.pl3     1 <0>        -0.7789
     34 N7          6.8311    3.6913    1.6055 N.pl3     1 <0>        -0.7767
     35 H2         -0.9591    1.9053    0.0259 H         1 <0>         0.1146
     36 H3          1.1563    3.1654    0.0076 H         1 <0>         0.1091
     37 H4          3.3051    1.9634   -0.0196 H         1 <0>         0.1028
     38 H5          1.2231   -1.7588   -0.0176 H         1 <0>         0.1244
     39 H6         -0.9258   -0.5567    0.0082 H         1 <0>         0.1275
     40 H7          3.5884   -1.6586   -0.5549 H         1 <0>         0.1028
     41 H8          4.4573   -0.1052   -0.5563 H         1 <0>         0.0641
     42 H9          5.4705    1.6669    1.0290 H         1 <0>         0.1279
     43 H10         7.0734    1.5579    5.0050 H         1 <0>         0.1257
     44 H11         6.0360   -0.6119    5.3918 H         1 <0>         0.1342
     45 H12         1.4837   -2.8157    3.1256 H         1 <0>         0.0981
     46 H13         0.8985   -6.1849    0.5795 H         1 <0>         0.1087
     47 H14        -0.4571   -5.8764    2.5629 H         1 <0>         0.0632
     48 H15        -0.2131   -4.4699    3.6262 H         1 <0>         0.0605
     49 H16         7.7966    3.1764    4.5963 H         1 <0>         0.4406
     50 H17         6.3089    3.2817    0.8981 H         1 <0>         0.4430
     51 H18         7.2488    4.5550    1.4620 H         1 <0>         0.4246
     52 H19         8.1097    4.4940    3.6020 H         1 <0>         0.4237
@<TRIPOS>BOND
     1    1    6 ar
     2    1    2 ar
     3    1   35 1
     4    2    3 ar
     5    2   36 1
     6    3    4 ar
     7    3   37 1
     8    4    5 ar
     9    4    7 1
    10    5    6 ar
    11    5   38 1
    12    6   39 1
    13    7    8 1
    14    7   40 1
    15    7   41 1
    16    8   17 2
    17    8    9 1
    18    9   14 ar
    19    9   10 ar
    20   10   11 ar
    21   10   42 1
    22   11   12 ar
    23   11   32 1
    24   12   13 ar
    25   12   43 1
    26   13   14 ar
    27   13   44 1
    28   14   15 1
    29   15   16 1
    30   15   17 1
    31   17   18 1
    32   18   23 ar
    33   18   19 ar
    34   19   20 ar
    35   19   45 1
    36   20   21 ar
    37   20   26 1
    38   21   22 ar
    39   21   46 1
    40   22   23 ar
    41   22   25 1
    42   23   24 1
    43   26   47 1
    44   26   48 1
    45   26   27 1
    46   27   28 2
    47   27   31 1
    48   28   29 1
    49   29   30 2
    50   30   31 1
    51   32   33 2
    52   32   34 1
    53   33   49 1
    54   33   52 1
    55   34   50 1
    56   34   51 1
@<TRIPOS>MOLECULE
CHEMBL53478
   49    53     0     0     0
SMALL
USER_CHARGES

@<TRIPOS>ATOM
      1 C1         -0.0167    1.3781    0.0096 C.ar      1 <0>        -0.1306
      2 C2          1.1709    2.0855    0.0021 C.ar      1 <0>        -0.1302
      3 C3          2.3773    1.4107   -0.0130 C.ar      1 <0>        -0.1268
      4 C4          2.3960    0.0285   -0.0201 C.ar      1 <0>        -0.0655
      5 C5          1.2084   -0.6789   -0.0117 C.ar      1 <0>        -0.0947
      6 C6          0.0021   -0.0041    0.0020 C.ar      1 <0>        -0.1100
      7 C7          3.7112   -0.7071   -0.0376 C.3       1 <0>        -0.0027
      8 C8          4.1644   -0.9594    1.3773 C.2       1 <0>        -0.1457
      9 C9          4.9948   -0.0770    2.1968 C.ar      1 <0>        -0.0927
     10 C10         5.5899    1.1651    1.9780 C.ar      1 <0>         0.0097
     11 C11         6.3389    1.7516    2.9924 C.ar      1 <0>        -0.2075
     12 C12         6.4914    1.0956    4.2214 C.ar      1 <0>        -0.0786
     13 C13         5.9110   -0.1191    4.4390 C.ar      1 <0>        -0.1103
     14 C14         5.1557   -0.7259    3.4379 C.ar      1 <0>         0.1408
     15 N1          4.4701   -1.9162    3.3708 N.pl3     1 <0>        -0.5663
     16 H1          4.4112   -2.5664    4.0883 H         1 <0>         0.4232
     17 C15         3.8757   -2.0452    2.1366 C.2       1 <0>         0.2457
     18 C16         3.0509   -3.1932    1.7036 C.ar      1 <0>        -0.2488
     19 C17         1.8319   -3.4513    2.3253 C.ar      1 <0>        -0.0010
     20 C18         1.0600   -4.5341    1.9119 C.ar      1 <0>        -0.0942
     21 C19         1.5092   -5.3570    0.8768 C.ar      1 <0>         0.0039
     22 C20         2.7170   -5.1011    0.2610 C.ar      1 <0>        -0.2246
     23 C21         3.4905   -4.0213    0.6626 C.ar      1 <0>         0.3208
     24 O1          4.6757   -3.7700    0.0498 O.3       1 <0>        -0.6892
     25 Br1         3.3171   -6.2214   -1.1392 Br        1 <0>        -0.0960
     26 C22        -0.2358   -4.8129    2.5696 C.2       1 <0>         0.1182
     27 N2         -1.0787   -5.8069    2.2836 N.2       1 <0>        -0.3871
     28 N3         -2.0869   -5.7010    3.0802 N.2       1 <0>        -0.2055
     29 N4         -1.9136   -4.6858    3.8520 N.2       1 <0>        -0.2080
     30 N5         -0.7886   -4.1233    3.5692 N.2       1 <0>        -0.3920
     31 C23         6.9750    3.0676    2.7739 C.cat     1 <0>         0.6060
     32 N6          7.6927    3.6300    3.7453 N.pl3     1 <0>        -0.7788
     33 N7          6.8308    3.6915    1.6057 N.pl3     1 <0>        -0.7775
     34 H2         -0.9591    1.9053    0.0259 H         1 <0>         0.1145
     35 H3          1.1563    3.1654    0.0076 H         1 <0>         0.1109
     36 H4          3.3051    1.9634   -0.0196 H         1 <0>         0.1058
     37 H5          1.2231   -1.7588   -0.0176 H         1 <0>         0.1307
     38 H6         -0.9258   -0.5567    0.0082 H         1 <0>         0.1210
     39 H7          3.5884   -1.6586   -0.5549 H         1 <0>         0.1055
     40 H8          4.4573   -0.1052   -0.5563 H         1 <0>         0.0654
     41 H9          5.4705    1.6670    1.0291 H         1 <0>         0.1274
     42 H10         7.0751    1.5568    5.0043 H         1 <0>         0.1256
     43 H11         6.0376   -0.6128    5.3912 H         1 <0>         0.1348
     44 H12         1.4865   -2.8139    3.1258 H         1 <0>         0.1062
     45 H13         0.9095   -6.1966    0.5576 H         1 <0>         0.1167
     46 H14         7.7977    3.1757    4.5959 H         1 <0>         0.4408
     47 H15         6.3083    3.2821    0.8985 H         1 <0>         0.4425
     48 H16         7.2483    4.5553    1.4624 H         1 <0>         0.4244
     49 H17         8.1102    4.4937    3.6019 H         1 <0>         0.4236
@<TRIPOS>BOND
     1    1    6 ar
     2    1    2 ar
     3    1   34 1
     4    2    3 ar
     5    2   35 1
     6    3    4 ar
     7    3   36 1
     8    4    5 ar
     9    4    7 1
    10    5    6 ar
    11    5   37 1
    12    6   38 1
    13    7    8 1
    14    7   39 1
    15    7   40 1
    16    8   17 2
    17    8    9 1
    18    9   14 ar
    19    9   10 ar
    20   10   11 ar
    21   10   41 1
    22   11   12 ar
    23   11   31 1
    24   12   13 ar
    25   12   42 1
    26   13   14 ar
    27   13   43 1
    28   14   15 1
    29   15   16 1
    30   15   17 1
    31   17   18 1
    32   18   23 ar
    33   18   19 ar
    34   19   20 ar
    35   19   44 1
    36   20   21 ar
    37   20   26 1
    38   21   22 ar
    39   21   45 1
    40   22   23 ar
    41   22   25 1
    42   23   24 1
    43   26   27 2
    44   26   30 1
    45   27   28 1
    46   28   29 2
    47   29   30 1
    48   31   32 2
    49   31   33 1
    50   32   46 1
    51   32   49 1
    52   33   47 1
    53   33   48 1
@<TRIPOS>MOLECULE
CHEMBL53478__1
   50    54     0     0     0
SMALL
USER_CHARGES

@<TRIPOS>ATOM
      1 C1         -0.0167    1.3781    0.0096 C.ar      1 <0>        -0.1203
      2 C2          1.1709    2.0855    0.0021 C.ar      1 <0>        -0.1228
      3 C3          2.3773    1.4107   -0.0130 C.ar      1 <0>        -0.1215
      4 C4          2.3960    0.0285   -0.0201 C.ar      1 <0>        -0.0794
      5 C5          1.2084   -0.6789   -0.0117 C.ar      1 <0>        -0.1021
      6 C6          0.0021   -0.0041    0.0020 C.ar      1 <0>        -0.1078
      7 C7          3.7112   -0.7071   -0.0376 C.3       1 <0>        -0.0100
      8 C8          4.1644   -0.9594    1.3773 C.2       1 <0>        -0.1091
      9 C9          4.9948   -0.0770    2.1968 C.ar      1 <0>        -0.1047
     10 C10         5.5899    1.1651    1.9780 C.ar      1 <0>         0.0185
     11 C11         6.3389    1.7516    2.9924 C.ar      1 <0>        -0.1956
     12 C12         6.4914    1.0956    4.2214 C.ar      1 <0>        -0.0614
     13 C13         5.9110   -0.1191    4.4390 C.ar      1 <0>        -0.1100
     14 C14         5.1557   -0.7259    3.4379 C.ar      1 <0>         0.1558
     15 N1          4.4701   -1.9162    3.3708 N.pl3     1 <0>        -0.5662
     16 H1          4.4112   -2.5664    4.0883 H         1 <0>         0.4289
     17 C15         3.8757   -2.0452    2.1366 C.2       1 <0>         0.1590
     18 C16         3.0509   -3.1932    1.7036 C.ar      1 <0>        -0.0824
     19 C17         1.8319   -3.4513    2.3253 C.ar      1 <0>        -0.0531
     20 C18         1.0600   -4.5341    1.9119 C.ar      1 <0>         0.0601
     21 C19         1.5092   -5.3570    0.8768 C.ar      1 <0>        -0.0459
     22 C20         2.7170   -5.1011    0.2610 C.ar      1 <0>        -0.1127
     23 C21         3.4905   -4.0213    0.6626 C.ar      1 <0>         0.1417
     24 O1          4.6757   -3.7700    0.0498 O.3       1 <0>        -0.4781
     25 Br1         3.3171   -6.2214   -1.1392 Br        1 <0>        -0.0323
     26 C22        -0.2358   -4.8129    2.5696 C.2       1 <0>         0.0622
     27 N2         -1.0787   -5.8069    2.2836 N.2       1 <0>        -0.3576
     28 N3         -2.0869   -5.7010    3.0802 N.2       1 <0>        -0.1786
     29 N4         -1.9136   -4.6858    3.8520 N.2       1 <0>        -0.1809
     30 N5         -0.7886   -4.1233    3.5692 N.2       1 <0>        -0.3629
     31 C23         6.9750    3.0676    2.7739 C.cat     1 <0>         0.6062
     32 N6          7.6927    3.6300    3.7453 N.pl3     1 <0>        -0.7705
     33 N7          6.8308    3.6915    1.6057 N.pl3     1 <0>        -0.7716
     34 H2         -0.9591    1.9053    0.0259 H         1 <0>         0.1209
     35 H3          1.1563    3.1654    0.0076 H         1 <0>         0.1176
     36 H4          3.3051    1.9634   -0.0196 H         1 <0>         0.1094
     37 H5          1.2231   -1.7588   -0.0176 H         1 <0>         0.1215
     38 H6         -0.9258   -0.5567    0.0082 H         1 <0>         0.1242
     39 H7          3.5884   -1.6586   -0.5549 H         1 <0>         0.0978
     40 H8          4.4573   -0.1052   -0.5563 H         1 <0>         0.0791
     41 H9          5.4705    1.6670    1.0291 H         1 <0>         0.1340
     42 H10         7.0751    1.5568    5.0043 H         1 <0>         0.1345
     43 H11         6.0376   -0.6128    5.3912 H         1 <0>         0.1425
     44 H12         1.4865   -2.8139    3.1258 H         1 <0>         0.1413
     45 H13         0.9095   -6.1966    0.5576 H         1 <0>         0.1505
     46 H14         5.4315   -4.2145    0.4578 H         1 <0>         0.3881
     47 H15         7.7977    3.1757    4.5959 H         1 <0>         0.4426
     48 H16         6.3083    3.2821    0.8985 H         1 <0>         0.4424
     49 H17         7.2483    4.5553    1.4624 H         1 <0>         0.4295
     50 H18         8.1102    4.4937    3.6019 H         1 <0>         0.4289
@<TRIPOS>BOND
     1    1    6 ar
     2    1    2 ar
     3    1   34 1
     4    2    3 ar
     5    2   35 1
     6    3    4 ar
     7    3   36 1
     8    4    5 ar
     9    4    7 1
    10    5    6 ar
    11    5   37 1
    12    6   38 1
    13    7    8 1
    14    7   39 1
    15    7   40 1
    16    8   17 2
    17    8    9 1
    18    9   14 ar
    19    9   10 ar
    20   10   11 ar
    21   10   41 1
    22   11   12 ar
    23   11   31 1
    24   12   13 ar
    25   12   42 1
    26   13   14 ar
    27   13   43 1
    28   14   15 1
    29   15   16 1
    30   15   17 1
    31   17   18 1
    32   18   23 ar
    33   18   19 ar
    34   19   20 ar
    35   19   44 1
    36   20   21 ar
    37   20   26 1
    38   21   22 ar
    39   21   45 1
    40   22   23 ar
    41   22   25 1
    42   23   24 1
    43   24   46 1
    44   26   27 2
    45   26   30 1
    46   27   28 1
    47   28   29 2
    48   29   30 1
    49   31   32 2
    50   31   33 1
    51   32   47 1
    52   32   50 1
    53   33   48 1
    54   33   49 1
@<TRIPOS>MOLECULE
CHEMBL184844
   57    61     0     0     0
SMALL
USER_CHARGES

@<TRIPOS>ATOM
      1 C1          2.1161   -1.2050    0.8938 C.3       1 <0>        -0.1407
      2 C2          1.0303   -0.7475    1.8699 C.3       1 <0>        -0.0494
      3 C3          1.2179    0.7387    2.1814 C.3       1 <0>        -0.1346
      4 C4         -0.3261   -0.9634    1.2497 C.2       1 <0>         0.2116
      5 N1         -1.0781    0.0474    0.9678 N.2       1 <0>        -0.5061
      6 C5         -2.4050   -0.1097    0.3820 C.3       1 <0>         0.0383
      7 C6         -2.4409   -1.2779   -0.6021 C.3       1 <0>        -0.1094
      8 C7         -1.8445   -2.4992    0.0473 C.ar      1 <0>        -0.0605
      9 C8         -0.7974   -2.3306    0.9566 C.ar      1 <0>        -0.1073
     10 C9         -0.2250   -3.4426    1.5679 C.ar      1 <0>        -0.0794
     11 C10        -0.6966   -4.7049    1.2636 C.ar      1 <0>        -0.1236
     12 C11        -1.7306   -4.8629    0.3582 C.ar      1 <0>        -0.0367
     13 C12        -2.3078   -3.7618   -0.2427 C.ar      1 <0>        -0.1058
     14 C13        -2.2367   -6.2449    0.0338 C.3       1 <0>        -0.0996
     15 C14        -1.3738   -7.4325    0.4650 C.3       1 <0>        -0.1636
     16 C15        -1.4666   -7.0513   -1.0138 C.3       1 <0>        -0.1221
     17 C16        -0.2601   -6.4029   -1.6423 C.ar      1 <0>         0.0011
     18 C17         0.8765   -6.1737   -0.8692 C.ar      1 <0>        -0.0962
     19 C18         1.9825   -5.5903   -1.4063 C.ar      1 <0>        -0.0897
     20 C19         1.9817   -5.2125   -2.7611 C.ar      1 <0>        -0.0693
     21 C20         3.1052   -4.6094   -3.3466 C.ar      1 <0>        -0.0092
     22 C21         3.0667   -4.2518   -4.6832 C.ar      1 <0>        -0.1589
     23 C22         1.9141   -4.4886   -5.4528 C.ar      1 <0>        -0.0950
     24 C23         0.8179   -5.0710   -4.9035 C.ar      1 <0>        -0.0804
     25 C24         0.8253   -5.4462   -3.5476 C.ar      1 <0>        -0.0050
     26 C25        -0.2952   -6.0552   -2.9580 C.ar      1 <0>        -0.1134
     27 C26         4.2472   -3.6152   -5.3067 C.cat     1 <0>         0.6000
     28 N2          4.2159   -3.2691   -6.5923 N.pl3     1 <0>        -0.7621
     29 N3          5.3416   -3.3881   -4.5825 N.pl3     1 <0>        -0.7658
     30 H1          3.0971   -1.0488    1.3424 H         1 <0>         0.0654
     31 H2          1.9824   -2.2637    0.6718 H         1 <0>         0.0564
     32 H3          2.0422   -0.6283   -0.0282 H         1 <0>         0.0543
     33 H4          1.1042   -1.3242    2.7919 H         1 <0>         0.0907
     34 H5          1.1439    1.3153    1.2595 H         1 <0>         0.0613
     35 H6          0.4445    1.0645    2.8769 H         1 <0>         0.0606
     36 H7          2.1990    0.8949    2.6299 H         1 <0>         0.0552
     37 H8         -3.1275   -0.2909    1.1778 H         1 <0>         0.0799
     38 H9         -2.6749    0.8071   -0.1420 H         1 <0>         0.0971
     39 H10        -3.4734   -1.4839   -0.8842 H         1 <0>         0.0886
     40 H11        -1.8653   -1.0216   -1.4916 H         1 <0>         0.0794
     41 H12         0.5818   -3.3194    2.2752 H         1 <0>         0.1311
     42 H13        -0.2567   -5.5715    1.7345 H         1 <0>         0.1267
     43 H14        -3.1145   -3.8934   -0.9486 H         1 <0>         0.1256
     44 H15        -3.3189   -6.3695    0.0693 H         1 <0>         0.1264
     45 H16        -0.4401   -7.2142    0.9834 H         1 <0>         0.1050
     46 H17        -1.8883   -8.3387    0.7845 H         1 <0>         0.1117
     47 H18        -2.0422   -7.7068   -1.6673 H         1 <0>         0.1273
     48 H19         0.8796   -6.4629    0.1714 H         1 <0>         0.1369
     49 H20         2.8562   -5.4180   -0.7953 H         1 <0>         0.1389
     50 H21         3.9925   -4.4253   -2.7590 H         1 <0>         0.1402
     51 H22         1.9006   -4.2031   -6.4943 H         1 <0>         0.1336
     52 H23        -0.0602   -5.2461   -5.5074 H         1 <0>         0.1476
     53 H24        -1.1819   -6.2434   -3.5453 H         1 <0>         0.1399
     54 H25         3.4188   -3.4345   -7.1198 H         1 <0>         0.4445
     55 H26         5.3644   -3.6402   -3.6461 H         1 <0>         0.4428
     56 H27         6.1158   -2.9706   -4.9914 H         1 <0>         0.4333
     57 H28         4.9901   -2.8516   -7.0012 H         1 <0>         0.4327
@<TRIPOS>BOND
     1    1    2 1
     2    1   30 1
     3    1   31 1
     4    1   32 1
     5    2    3 1
     6    2    4 1
     7    2   33 1
     8    3   34 1
     9    3   35 1
    10    3   36 1
    11    4    9 1
    12    4    5 2
    13    5    6 1
    14    6    7 1
    15    6   37 1
    16    6   38 1
    17    7    8 1
    18    7   39 1
    19    7   40 1
    20    8   13 ar
    21    8    9 ar
    22    9   10 ar
    23   10   11 ar
    24   10   41 1
    25   11   12 ar
    26   11   42 1
    27   12   13 ar
    28   12   14 1
    29   13   43 1
    30   14   16 1
    31   14   15 1
    32   14   44 1
    33   15   16 1
    34   15   45 1
    35   15   46 1
    36   16   17 1
    37   16   47 1
    38   17   26 ar
    39   17   18 ar
    40   18   19 ar
    41   18   48 1
    42   19   20 ar
    43   19   49 1
    44   20   25 ar
    45   20   21 ar
    46   21   22 ar
    47   21   50 1
    48   22   23 ar
    49   22   27 1
    50   23   24 ar
    51   23   51 1
    52   24   25 ar
    53   24   52 1
    54   25   26 ar
    55   26   53 1
    56   27   28 2
    57   27   29 1
    58   28   54 1
    59   28   57 1
    60   29   55 1
    61   29   56 1
@<TRIPOS>MOLECULE
CHEMBL184844__1
   57    61     0     0     0
SMALL
USER_CHARGES

@<TRIPOS>ATOM
      1 C1          0.7568   -0.3922   -1.2710 C.3       1 <0>        -0.1436
      2 C2          0.0021   -0.0041    0.0020 C.3       1 <0>        -0.0496
      3 C3         -0.0150    1.5196    0.1404 C.3       1 <0>        -0.1342
      4 C4         -1.4127   -0.5172   -0.0766 C.2       1 <0>         0.2132
      5 N1         -2.4008    0.3121   -0.1298 N.2       1 <0>        -0.5063
      6 C5         -3.7884   -0.1343   -0.1905 C.3       1 <0>         0.0388
      7 C6         -3.9246   -1.4071   -1.0248 C.3       1 <0>        -0.1107
      8 C7         -2.9124   -2.4215   -0.5608 C.ar      1 <0>        -0.0609
      9 C8         -1.6738   -1.9693   -0.0992 C.ar      1 <0>        -0.1057
     10 C9         -0.7184   -2.8856    0.3314 C.ar      1 <0>        -0.0769
     11 C10        -1.0045   -4.2365    0.2923 C.ar      1 <0>        -0.1254
     12 C11        -2.2317   -4.6758   -0.1710 C.ar      1 <0>        -0.0428
     13 C12        -3.1858   -3.7695   -0.5896 C.ar      1 <0>        -0.1076
     14 C13        -2.5325   -6.1519   -0.2094 C.3       1 <0>        -0.0932
     15 C14        -1.5303   -7.0947    0.4597 C.3       1 <0>        -0.1618
     16 C15        -1.6242   -7.0360   -1.0663 C.3       1 <0>        -0.1218
     17 C16        -2.2573   -8.2085   -1.7702 C.ar      1 <0>        -0.0034
     18 C17        -2.8926   -9.1971   -1.0210 C.ar      1 <0>        -0.1045
     19 C18        -3.4741  -10.2685   -1.6259 C.ar      1 <0>        -0.0883
     20 C19        -3.4354  -10.3825   -3.0272 C.ar      1 <0>        -0.0722
     21 C20        -4.0254  -11.4738   -3.6828 C.ar      1 <0>        -0.0091
     22 C21        -3.9671  -11.5510   -5.0636 C.ar      1 <0>        -0.1582
     23 C22        -3.3234  -10.5470   -5.8083 C.ar      1 <0>        -0.0940
     24 C23        -2.7472   -9.4840   -5.1914 C.ar      1 <0>        -0.0799
     25 C24        -2.7892   -9.3763   -3.7892 C.ar      1 <0>        -0.0055
     26 C25        -2.2046   -8.2829   -3.1285 C.ar      1 <0>        -0.1121
     27 C26        -4.5865  -12.6988   -5.7611 C.cat     1 <0>         0.6000
     28 N2         -4.5334  -12.7782   -7.0894 N.pl3     1 <0>        -0.7616
     29 N3         -5.1971  -13.6529   -5.0608 N.pl3     1 <0>        -0.7656
     30 H1          1.7801   -0.0210   -1.2142 H         1 <0>         0.0672
     31 H2          0.7689   -1.4776   -1.3696 H         1 <0>         0.0573
     32 H3          0.2591    0.0457   -2.1363 H         1 <0>         0.0576
     33 H4          0.4998   -0.4419    0.8673 H         1 <0>         0.0902
     34 H5         -0.4909    1.9587   -0.7364 H         1 <0>         0.0619
     35 H6         -0.5736    1.7970    1.0342 H         1 <0>         0.0595
     36 H7          1.0075    1.8884    0.2218 H         1 <0>         0.0558
     37 H8         -4.1450   -0.3304    0.8207 H         1 <0>         0.0785
     38 H9         -4.3974    0.6520   -0.6366 H         1 <0>         0.0973
     39 H10        -4.9285   -1.8144   -0.9051 H         1 <0>         0.0877
     40 H11        -3.7499   -1.1735   -2.0751 H         1 <0>         0.0829
     41 H12         0.2395   -2.5428    0.6938 H         1 <0>         0.1335
     42 H13        -0.2674   -4.9523    0.6250 H         1 <0>         0.1286
     43 H14        -4.1415   -4.1203   -0.9501 H         1 <0>         0.1251
     44 H15        -3.5881   -6.4182   -0.1551 H         1 <0>         0.1178
     45 H16        -0.6534   -6.6473    0.9276 H         1 <0>         0.1113
     46 H17        -1.9265   -7.9815    0.9545 H         1 <0>         0.1068
     47 H18        -0.8090   -6.5498   -1.6023 H         1 <0>         0.1245
     48 H19        -2.9237   -9.1118    0.0551 H         1 <0>         0.1395
     49 H20        -3.9625  -11.0276   -1.0329 H         1 <0>         0.1405
     50 H21        -4.5206  -12.2474   -3.1147 H         1 <0>         0.1410
     51 H22        -3.2866  -10.6228   -6.8850 H         1 <0>         0.1345
     52 H23        -2.2560   -8.7210   -5.7770 H         1 <0>         0.1489
     53 H24        -1.7125   -7.5066   -3.6955 H         1 <0>         0.1416
     54 H25        -4.0887  -12.0833   -7.5995 H         1 <0>         0.4446
     55 H26        -5.2357  -13.5950   -4.0933 H         1 <0>         0.4429
     56 H27        -5.6033  -14.4057   -5.5182 H         1 <0>         0.4334
     57 H28        -4.9396  -13.5310   -7.5469 H         1 <0>         0.4328
@<TRIPOS>BOND
     1    1    2 1
     2    1   30 1
     3    1   31 1
     4    1   32 1
     5    2    3 1
     6    2    4 1
     7    2   33 1
     8    3   34 1
     9    3   35 1
    10    3   36 1
    11    4    9 1
    12    4    5 2
    13    5    6 1
    14    6    7 1
    15    6   37 1
    16    6   38 1
    17    7    8 1
    18    7   39 1
    19    7   40 1
    20    8   13 ar
    21    8    9 ar
    22    9   10 ar
    23   10   11 ar
    24   10   41 1
    25   11   12 ar
    26   11   42 1
    27   12   13 ar
    28   12   14 1
    29   13   43 1
    30   14   16 1
    31   14   15 1
    32   14   44 1
    33   15   16 1
    34   15   45 1
    35   15   46 1
    36   16   17 1
    37   16   47 1
    38   17   26 ar
    39   17   18 ar
    40   18   19 ar
    41   18   48 1
    42   19   20 ar
    43   19   49 1
    44   20   25 ar
    45   20   21 ar
    46   21   22 ar
    47   21   50 1
    48   22   23 ar
    49   22   27 1
    50   23   24 ar
    51   23   51 1
    52   24   25 ar
    53   24   52 1
    54   25   26 ar
    55   26   53 1
    56   27   28 2
    57   27   29 1
    58   28   54 1
    59   28   57 1
    60   29   55 1
    61   29   56 1
@<TRIPOS>MOLECULE
CHEMBL184844__2
   57    61     0     0     0
SMALL
USER_CHARGES

@<TRIPOS>ATOM
      1 C1          0.7568   -0.3922   -1.2710 C.3       1 <0>        -0.1445
      2 C2          0.0021   -0.0041    0.0020 C.3       1 <0>        -0.0495
      3 C3         -0.0150    1.5196    0.1404 C.3       1 <0>        -0.1341
      4 C4         -1.4127   -0.5172   -0.0766 C.2       1 <0>         0.2140
      5 N1         -2.4008    0.3121   -0.1298 N.2       1 <0>        -0.5070
      6 C5         -3.7884   -0.1343   -0.1905 C.3       1 <0>         0.0397
      7 C6         -3.9246   -1.4071   -1.0248 C.3       1 <0>        -0.1113
      8 C7         -2.9124   -2.4215   -0.5608 C.ar      1 <0>        -0.0606
      9 C8         -1.6738   -1.9693   -0.0992 C.ar      1 <0>        -0.1060
     10 C9         -0.7184   -2.8856    0.3314 C.ar      1 <0>        -0.0767
     11 C10        -1.0045   -4.2365    0.2923 C.ar      1 <0>        -0.1255
     12 C11        -2.2317   -4.6758   -0.1710 C.ar      1 <0>        -0.0426
     13 C12        -3.1858   -3.7695   -0.5896 C.ar      1 <0>        -0.1078
     14 C13        -2.5325   -6.1519   -0.2094 C.3       1 <0>        -0.0930
     15 C14        -1.3803   -7.1155    0.0820 C.3       1 <0>        -0.1616
     16 C15        -2.4908   -6.9161    1.1155 C.3       1 <0>        -0.1222
     17 C16        -3.4776   -8.0397    1.3021 C.ar      1 <0>        -0.0034
     18 C17        -3.4572   -9.1234    0.4261 C.ar      1 <0>        -0.1045
     19 C18        -4.3346  -10.1541    0.5671 C.ar      1 <0>        -0.0883
     20 C19        -5.2765  -10.1284    1.6113 C.ar      1 <0>        -0.0722
     21 C20        -6.1949  -11.1748    1.7855 C.ar      1 <0>        -0.0091
     22 C21        -7.1067  -11.1140    2.8252 C.ar      1 <0>        -0.1582
     23 C22        -7.1171  -10.0153    3.7025 C.ar      1 <0>        -0.0940
     24 C23        -6.2362   -8.9940    3.5495 C.ar      1 <0>        -0.0799
     25 C24        -5.2968   -9.0258    2.5026 C.ar      1 <0>        -0.0054
     26 C25        -4.3716   -7.9832    2.3271 C.ar      1 <0>        -0.1123
     27 C26        -8.0780  -12.2133    3.0144 C.cat     1 <0>         0.6000
     28 N2         -8.9576  -12.1601    4.0130 N.pl3     1 <0>        -0.7617
     29 N3         -8.0731  -13.2562    2.1862 N.pl3     1 <0>        -0.7655
     30 H1          1.7801   -0.0210   -1.2142 H         1 <0>         0.0675
     31 H2          0.7689   -1.4776   -1.3696 H         1 <0>         0.0580
     32 H3          0.2591    0.0457   -2.1363 H         1 <0>         0.0582
     33 H4          0.4998   -0.4419    0.8673 H         1 <0>         0.0898
     34 H5         -0.4909    1.9587   -0.7364 H         1 <0>         0.0621
     35 H6         -0.5736    1.7970    1.0342 H         1 <0>         0.0589
     36 H7          1.0075    1.8884    0.2218 H         1 <0>         0.0559
     37 H8         -4.1450   -0.3304    0.8207 H         1 <0>         0.0771
     38 H9         -4.3974    0.6520   -0.6366 H         1 <0>         0.0970
     39 H10        -4.9285   -1.8144   -0.9051 H         1 <0>         0.0872
     40 H11        -3.7499   -1.1735   -2.0751 H         1 <0>         0.0841
     41 H12         0.2395   -2.5428    0.6938 H         1 <0>         0.1336
     42 H13        -0.2674   -4.9523    0.6250 H         1 <0>         0.1286
     43 H14        -4.1415   -4.1203   -0.9501 H         1 <0>         0.1251
     44 H15        -3.2740   -6.4616   -0.9459 H         1 <0>         0.1179
     45 H16        -1.3635   -8.0594   -0.4629 H         1 <0>         0.1069
     46 H17        -0.4047   -6.6817    0.3015 H         1 <0>         0.1114
     47 H18        -2.2457   -6.3511    2.0148 H         1 <0>         0.1242
     48 H19        -2.7348   -9.1454   -0.3765 H         1 <0>         0.1396
     49 H20        -4.3080  -10.9873   -0.1195 H         1 <0>         0.1406
     50 H21        -6.1907  -12.0204    1.1138 H         1 <0>         0.1411
     51 H22        -7.8354   -9.9835    4.5083 H         1 <0>         0.1345
     52 H23        -6.2567   -8.1566    4.2312 H         1 <0>         0.1488
     53 H24        -4.3721   -7.1387    3.0004 H         1 <0>         0.1414
     54 H25        -8.9612  -11.4005    4.6163 H         1 <0>         0.4446
     55 H26        -7.4325  -13.2949    1.4589 H         1 <0>         0.4429
     56 H27        -8.7101  -13.9771    2.3103 H         1 <0>         0.4334
     57 H28        -9.5946  -12.8810    4.1372 H         1 <0>         0.4328
@<TRIPOS>BOND
     1    1    2 1
     2    1   30 1
     3    1   31 1
     4    1   32 1
     5    2    3 1
     6    2    4 1
     7    2   33 1
     8    3   34 1
     9    3   35 1
    10    3   36 1
    11    4    9 1
    12    4    5 2
    13    5    6 1
    14    6    7 1
    15    6   37 1
    16    6   38 1
    17    7    8 1
    18    7   39 1
    19    7   40 1
    20    8   13 ar
    21    8    9 ar
    22    9   10 ar
    23   10   11 ar
    24   10   41 1
    25   11   12 ar
    26   11   42 1
    27   12   13 ar
    28   12   14 1
    29   13   43 1
    30   14   16 1
    31   14   15 1
    32   14   44 1
    33   15   16 1
    34   15   45 1
    35   15   46 1
    36   16   17 1
    37   16   47 1
    38   17   26 ar
    39   17   18 ar
    40   18   19 ar
    41   18   48 1
    42   19   20 ar
    43   19   49 1
    44   20   25 ar
    45   20   21 ar
    46   21   22 ar
    47   21   50 1
    48   22   23 ar
    49   22   27 1
    50   23   24 ar
    51   23   51 1
    52   24   25 ar
    53   24   52 1
    54   25   26 ar
    55   26   53 1
    56   27   28 2
    57   27   29 1
    58   28   54 1
    59   28   57 1
    60   29   55 1
    61   29   56 1
@<TRIPOS>MOLECULE
CHEMBL184844__3
   57    61     0     0     0
SMALL
USER_CHARGES

@<TRIPOS>ATOM
      1 C1         -0.4137   -0.2118    1.5468 C.3       1 <0>        -0.1402
      2 C2          0.4260   -0.1913    0.2680 C.3       1 <0>        -0.0507
      3 C3          1.4938    0.8991    0.3764 C.3       1 <0>        -0.1337
      4 C4          1.0923   -1.5303    0.0831 C.2       1 <0>         0.2148
      5 N1          2.3782   -1.6281    0.1439 N.2       1 <0>        -0.5081
      6 C5          3.0714   -2.8980   -0.0444 C.3       1 <0>         0.0383
      7 C6          2.2735   -4.0576    0.5496 C.3       1 <0>        -0.1072
      8 C7          0.8506   -3.9901    0.0599 C.ar      1 <0>        -0.0621
      9 C8          0.2773   -2.7356   -0.1622 C.ar      1 <0>        -0.1082
     10 C9         -1.0374   -2.6444   -0.6105 C.ar      1 <0>        -0.0783
     11 C10        -1.7647   -3.7988   -0.8264 C.ar      1 <0>        -0.1141
     12 C11        -1.1907   -5.0368   -0.5991 C.ar      1 <0>        -0.0369
     13 C12         0.1163   -5.1318   -0.1640 C.ar      1 <0>        -0.1132
     14 C13        -1.9940   -6.2893   -0.8378 C.3       1 <0>        -0.0987
     15 C14        -1.4075   -7.6108   -0.3373 C.3       1 <0>        -0.1656
     16 C15        -2.6018   -6.9822    0.3834 C.3       1 <0>        -0.1205
     17 C16        -2.3514   -6.3599    1.7329 C.ar      1 <0>        -0.0007
     18 C17        -3.4071   -5.7637    2.4201 C.ar      1 <0>        -0.0926
     19 C18        -3.2145   -5.1930    3.6404 C.ar      1 <0>        -0.0913
     20 C19        -1.9328   -5.2038    4.2194 C.ar      1 <0>        -0.0700
     21 C20        -1.6997   -4.6250    5.4761 C.ar      1 <0>        -0.0088
     22 C21        -0.4245   -4.6557    6.0136 C.ar      1 <0>        -0.1587
     23 C22         0.6323   -5.2605    5.3106 C.ar      1 <0>        -0.0940
     24 C23         0.4256   -5.8255    4.0938 C.ar      1 <0>        -0.0809
     25 C24        -0.8590   -5.8109    3.5202 C.ar      1 <0>        -0.0020
     26 C25        -1.0986   -6.3937    2.2645 C.ar      1 <0>        -0.1154
     27 C26        -0.1715   -4.0470    7.3377 C.cat     1 <0>         0.6000
     28 N2          1.0535   -4.0736    7.8597 N.pl3     1 <0>        -0.7620
     29 N3         -1.1686   -3.4724    8.0079 N.pl3     1 <0>        -0.7656
     30 H1         -0.8957    0.7567    1.6805 H         1 <0>         0.0665
     31 H2         -1.1744   -0.9886    1.4696 H         1 <0>         0.0569
     32 H3          0.2307   -0.4180    2.4013 H         1 <0>         0.0529
     33 H4         -0.2185    0.0149   -0.5866 H         1 <0>         0.0914
     34 H5          2.0942    0.7321    1.2706 H         1 <0>         0.0591
     35 H6          2.1361    0.8675   -0.5037 H         1 <0>         0.0616
     36 H7          1.0117    1.8747    0.4395 H         1 <0>         0.0557
     37 H8          3.2143   -3.0721   -1.1109 H         1 <0>         0.0795
     38 H9          4.0456   -2.8486    0.4420 H         1 <0>         0.0958
     39 H10         2.7200   -5.0024    0.2397 H         1 <0>         0.0870
     40 H11         2.2871   -3.9886    1.6373 H         1 <0>         0.0772
     41 H12        -1.4854   -1.6780   -0.7886 H         1 <0>         0.1318
     42 H13        -2.7851   -3.7346   -1.1743 H         1 <0>         0.1280
     43 H14         0.5573   -6.1020    0.0113 H         1 <0>         0.1243
     44 H15        -2.5658   -6.3115   -1.7655 H         1 <0>         0.1276
     45 H16        -1.5932   -8.5027   -0.9357 H         1 <0>         0.1122
     46 H17        -0.4406   -7.5743    0.1647 H         1 <0>         0.1026
     47 H18        -3.5733   -7.4605    0.2590 H         1 <0>         0.1286
     48 H19        -4.3923   -5.7541    1.9776 H         1 <0>         0.1378
     49 H20        -4.0416   -4.7338    4.1614 H         1 <0>         0.1397
     50 H21        -2.5084   -4.1590    6.0194 H         1 <0>         0.1405
     51 H22         1.6214   -5.2754    5.7441 H         1 <0>         0.1332
     52 H23         1.2475   -6.2860    3.5657 H         1 <0>         0.1451
     53 H24        -0.2917   -6.8634    1.7217 H         1 <0>         0.1385
     54 H25         1.7797   -4.4921    7.3715 H         1 <0>         0.4443
     55 H26        -2.0608   -3.4530    7.6277 H         1 <0>         0.4428
     56 H27        -1.0027   -3.0732    8.8762 H         1 <0>         0.4333
     57 H28         1.2194   -3.6744    8.7280 H         1 <0>         0.4327
@<TRIPOS>BOND
     1    1    2 1
     2    1   30 1
     3    1   31 1
     4    1   32 1
     5    2    3 1
     6    2    4 1
     7    2   33 1
     8    3   34 1
     9    3   35 1
    10    3   36 1
    11    4    9 1
    12    4    5 2
    13    5    6 1
    14    6    7 1
    15    6   37 1
    16    6   38 1
    17    7    8 1
    18    7   39 1
    19    7   40 1
    20    8   13 ar
    21    8    9 ar
    22    9   10 ar
    23   10   11 ar
    24   10   41 1
    25   11   12 ar
    26   11   42 1
    27   12   13 ar
    28   12   14 1
    29   13   43 1
    30   14   16 1
    31   14   15 1
    32   14   44 1
    33   15   16 1
    34   15   45 1
    35   15   46 1
    36   16   17 1
    37   16   47 1
    38   17   26 ar
    39   17   18 ar
    40   18   19 ar
    41   18   48 1
    42   19   20 ar
    43   19   49 1
    44   20   25 ar
    45   20   21 ar
    46   21   22 ar
    47   21   50 1
    48   22   23 ar
    49   22   27 1
    50   23   24 ar
    51   23   51 1
    52   24   25 ar
    53   24   52 1
    54   25   26 ar
    55   26   53 1
    56   27   28 2
    57   27   29 1
    58   28   54 1
    59   28   57 1
    60   29   55 1
    61   29   56 1
@<TRIPOS>MOLECULE
CHEMBL96433
   43    46     0     0     0
SMALL
USER_CHARGES

@<TRIPOS>ATOM
      1 C1         -0.0167    1.3790    0.0096 C.ar      1 <0>        -0.1119
      2 C2          1.1686    2.0920    0.0021 C.ar      1 <0>        -0.1154
      3 C3          2.3774    1.4262   -0.0129 C.ar      1 <0>        -0.1038
      4 C4          2.4023    0.0328   -0.0206 C.ar      1 <0>        -0.0503
      5 C5          1.2050   -0.6804   -0.0130 C.ar      1 <0>        -0.1004
      6 C6          0.0021   -0.0041    0.0020 C.ar      1 <0>        -0.1169
      7 C7          3.6984   -0.6885   -0.0373 C.ar      1 <0>        -0.0623
      8 C8          4.6788   -0.3420   -0.9653 C.ar      1 <0>        -0.0745
      9 C9          5.8869   -1.0114   -0.9832 C.ar      1 <0>        -0.1187
     10 C10         6.1352   -2.0290   -0.0833 C.ar      1 <0>        -0.0725
     11 C11         5.1651   -2.3895    0.8524 C.ar      1 <0>        -0.0810
     12 C12         3.9414   -1.7122    0.8803 C.ar      1 <0>         0.1335
     13 O1          2.9936   -2.0519    1.7911 O.3       1 <0>        -0.4914
     14 C13         5.4316   -3.4796    1.8147 C.2       1 <0>         0.1502
     15 C14         6.0796   -4.6356    1.5267 C.2       1 <0>        -0.1727
     16 C15         6.1193   -5.4188    2.7615 C.ar      1 <0>        -0.1158
     17 C16         6.6398   -6.6692    3.0942 C.ar      1 <0>         0.0150
     18 C17         6.5067   -7.1396    4.3961 C.ar      1 <0>        -0.1892
     19 C18         5.8541   -6.3604    5.3609 C.ar      1 <0>        -0.0585
     20 C19         5.3434   -5.1374    5.0391 C.ar      1 <0>        -0.1103
     21 C20         5.4655   -4.6448    3.7417 C.ar      1 <0>         0.1529
     22 N1          5.0654   -3.4742    3.1410 N.pl3     1 <0>        -0.5620
     23 H1          4.5928   -2.7531    3.5855 H         1 <0>         0.4319
     24 C21         7.0536   -8.4629    4.7624 C.cat     1 <0>         0.6050
     25 N2          6.9264   -8.9142    6.0094 N.pl3     1 <0>        -0.7671
     26 N3          7.6737   -9.2044    3.8456 N.pl3     1 <0>        -0.7691
     27 H2         -0.9603    1.9042    0.0260 H         1 <0>         0.1261
     28 H3          1.1481    3.1718    0.0077 H         1 <0>         0.1276
     29 H4          3.3022    1.9839   -0.0191 H         1 <0>         0.1243
     30 H5          1.2185   -1.7603   -0.0193 H         1 <0>         0.1154
     31 H6         -0.9264   -0.5557    0.0082 H         1 <0>         0.1259
     32 H7          4.4932    0.4523   -1.6731 H         1 <0>         0.1368
     33 H8          6.6417   -0.7376   -1.7055 H         1 <0>         0.1392
     34 H9          7.0825   -2.5473   -0.1040 H         1 <0>         0.1367
     35 H10         2.3843   -2.7386    1.4873 H         1 <0>         0.3927
     36 H11         6.4881   -4.9229    0.5691 H         1 <0>         0.1627
     37 H12         7.1413   -7.2669    2.3475 H         1 <0>         0.1384
     38 H13         5.7542   -6.7324    6.3699 H         1 <0>         0.1374
     39 H14         4.8424   -4.5484    5.7931 H         1 <0>         0.1437
     40 H15         6.4749   -8.3744    6.6769 H         1 <0>         0.4432
     41 H16         7.7662   -8.8758    2.9377 H         1 <0>         0.4426
     42 H17         8.0326  -10.0729    4.0860 H         1 <0>         0.4315
     43 H18         7.2854   -9.7827    6.2498 H         1 <0>         0.4313
@<TRIPOS>BOND
     1    1    6 ar
     2    1    2 ar
     3    1   27 1
     4    2    3 ar
     5    2   28 1
     6    3    4 ar
     7    3   29 1
     8    4    5 ar
     9    4    7 1
    10    5    6 ar
    11    5   30 1
    12    6   31 1
    13    7   12 ar
    14    7    8 ar
    15    8    9 ar
    16    8   32 1
    17    9   10 ar
    18    9   33 1
    19   10   11 ar
    20   10   34 1
    21   11   12 ar
    22   11   14 1
    23   12   13 1
    24   13   35 1
    25   14   22 1
    26   14   15 2
    27   15   16 1
    28   15   36 1
    29   16   21 ar
    30   16   17 ar
    31   17   18 ar
    32   17   37 1
    33   18   19 ar
    34   18   24 1
    35   19   20 ar
    36   19   38 1
    37   20   21 ar
    38   20   39 1
    39   21   22 1
    40   22   23 1
    41   24   25 2
    42   24   26 1
    43   25   40 1
    44   25   43 1
    45   26   41 1
    46   26   42 1
@<TRIPOS>MOLECULE
CHEMBL571566
   55    58     0     0     0
SMALL
USER_CHARGES

@<TRIPOS>ATOM
      1 C1         -4.3858    1.4230    2.4007 C.3       1 <0>        -0.0989
      2 C2         -4.0851   -0.0080    2.0361 C.ar      1 <0>        -0.0822
      3 C3         -4.7274   -0.5929    0.9560 C.ar      1 <0>        -0.1446
      4 C4         -4.4614   -1.8999    0.6132 C.ar      1 <0>        -0.0633
      5 C5         -3.5383   -2.6419    1.3576 C.ar      1 <0>        -0.1336
      6 C6         -2.8901   -2.0455    2.4500 C.ar      1 <0>         0.1055
      7 C7         -3.1677   -0.7259    2.7765 C.ar      1 <0>        -0.1723
      8 O1         -1.9936   -2.7539    3.1800 O.3       1 <0>        -0.1607
      9 C8         -1.0998   -2.0650    3.9348 C.ar      1 <0>         0.3174
     10 C9         -0.2237   -2.7552    4.7634 C.ar      1 <0>         0.0719
     11 C10         0.6861   -2.0425    5.5304 C.ar      1 <0>        -0.0905
     12 C11         0.6869   -0.6580    5.4405 C.ar      1 <0>         0.0453
     13 C12        -0.2174   -0.0332    4.5910 C.ar      1 <0>         0.2818
     14 N1         -1.0689   -0.7439    3.8692 N.ar      1 <0>        -0.5037
     15 O2         -0.2242    1.3211    4.4964 O.3       1 <0>        -0.2230
     16 C13        -0.3315    1.8737    3.2595 C.ar      1 <0>         0.1393
     17 C14        -0.4599    3.2471    3.1235 C.ar      1 <0>        -0.1320
     18 C15        -0.5694    3.8125    1.8557 C.ar      1 <0>        -0.0249
     19 C16        -0.5494    2.9954    0.7276 C.ar      1 <0>        -0.1561
     20 C17        -0.4208    1.6233    0.8699 C.ar      1 <0>         0.1542
     21 C18        -0.3067    1.0633    2.1340 C.ar      1 <0>        -0.1792
     22 O3         -0.4012    0.8257   -0.2302 O.3       1 <0>        -0.4852
     23 C19        -0.7075    5.2825    1.7066 C.ar      1 <0>        -0.0189
     24 C20        -0.7223    6.1014    2.8341 C.ar      1 <0>        -0.0756
     25 C21        -0.8504    7.4678    2.6896 C.ar      1 <0>        -0.1085
     26 C22        -0.9642    8.0250    1.4285 C.ar      1 <0>        -0.0969
     27 C23        -0.9501    7.2170    0.3061 C.ar      1 <0>        -0.1678
     28 C24        -0.8170    5.8494    0.4388 C.ar      1 <0>        -0.0878
     29 C25        -1.0750    7.8311   -1.0644 C.3       1 <0>         0.0482
     30 N2          0.2622    8.1529   -1.5804 N.4       1 <0>        -0.6372
     31 F1          1.5564    0.0739    6.1709 F         1 <0>        -0.1137
     32 F2         -0.2579   -4.1045    4.8217 F         1 <0>        -0.0945
     33 C26        -3.2492   -4.0393    0.9977 C.2       1 <0>         0.5177
     34 O4         -3.8169   -4.5555    0.0448 O.co2     1 <0>        -0.6856
     35 O5         -2.4412   -4.6847    1.6514 O.co2     1 <0>        -0.6677
     36 H1         -3.7889    2.0896    1.7782 H         1 <0>         0.0586
     37 H2         -5.4445    1.6247    2.2377 H         1 <0>         0.0619
     38 H3         -4.1414    1.5897    3.4497 H         1 <0>         0.0570
     39 H4         -5.4402   -0.0209    0.3806 H         1 <0>         0.1153
     40 H5         -4.9649   -2.3514   -0.2288 H         1 <0>         0.1358
     41 H6         -2.6682   -0.2611    3.6136 H         1 <0>         0.1631
     42 H7          1.3781   -2.5538    6.1832 H         1 <0>         0.1814
     43 H8         -0.4755    3.8780    4.0000 H         1 <0>         0.1396
     44 H9         -0.6344    3.4311   -0.2569 H         1 <0>         0.1307
     45 H10        -0.2020   -0.0062    2.2422 H         1 <0>         0.1513
     46 H11         0.4877    0.6109   -0.5446 H         1 <0>         0.3951
     47 H12        -0.6339    5.6675    3.8191 H         1 <0>         0.1404
     48 H13        -0.8624    8.1034    3.5627 H         1 <0>         0.1383
     49 H14        -1.0647    9.0948    1.3200 H         1 <0>         0.1315
     50 H15        -0.8017    5.2197   -0.4386 H         1 <0>         0.1363
     51 H16        -1.5633    7.1249   -1.7359 H         1 <0>         0.1407
     52 H17        -1.6691    8.7428   -1.0012 H         1 <0>         0.1404
     53 H18         0.7143    8.8067   -0.9588 H         1 <0>         0.4340
     54 H19         0.8122    7.3091   -1.6389 H         1 <0>         0.4352
     55 H20         0.1786    8.5641   -2.4980 H         1 <0>         0.4368
@<TRIPOS>BOND
     1    1    2 1
     2    1   36 1
     3    1   37 1
     4    1   38 1
     5    2    7 ar
     6    2    3 ar
     7    3    4 ar
     8    3   39 1
     9    4    5 ar
    10    4   40 1
    11    5    6 ar
    12    5   33 1
    13    6    7 ar
    14    6    8 1
    15    7   41 1
    16    8    9 1
    17    9   14 ar
    18    9   10 ar
    19   10   11 ar
    20   10   32 1
    21   11   12 ar
    22   11   42 1
    23   12   13 ar
    24   12   31 1
    25   13   14 ar
    26   13   15 1
    27   15   16 1
    28   16   21 ar
    29   16   17 ar
    30   17   18 ar
    31   17   43 1
    32   18   19 ar
    33   18   23 1
    34   19   20 ar
    35   19   44 1
    36   20   21 ar
    37   20   22 1
    38   21   45 1
    39   22   46 1
    40   23   28 ar
    41   23   24 ar
    42   24   25 ar
    43   24   47 1
    44   25   26 ar
    45   25   48 1
    46   26   27 ar
    47   26   49 1
    48   27   28 ar
    49   27   29 1
    50   28   50 1
    51   29   30 1
    52   29   51 1
    53   29   52 1
    54   30   53 1
    55   30   54 1
    56   30   55 1
    57   33   34 2
    58   33   35 1
@<TRIPOS>MOLECULE
CHEMBL29250
   35    37     0     0     0
SMALL
USER_CHARGES

@<TRIPOS>ATOM
      1 C1         -0.0225    1.8097    0.0120 C.3       1 <0>        -0.2203
      2 S1          0.0021   -0.0041    0.0020 S.3       1 <0>         0.1704
      3 C2          0.8484   -0.4107   -1.4889 C.2       1 <0>        -0.0865
      4 C3          1.1490   -1.6681   -2.0095 C.2       1 <0>        -0.0850
      5 C4          1.8267   -1.7344   -3.2069 C.2       1 <0>         0.0177
      6 C5          2.1775   -0.5536   -3.8374 C.2       1 <0>        -0.3223
      7 S2          1.5331    0.6823   -2.7227 S.3       1 <0>         0.1826
      8 C6          2.8914   -0.3659   -5.1000 C.cat     1 <0>         0.6518
      9 N1          3.1403    0.8699   -5.5510 N.pl3     1 <0>        -0.7721
     10 N2          3.2958   -1.4299   -5.8049 N.pl3     1 <0>        -0.7664
     11 C7          0.7495   -2.9043   -1.2916 C.2       1 <0>         0.1131
     12 C8          1.0555   -4.1349   -1.8115 C.2       1 <0>        -0.2092
     13 S3          0.3526   -5.2057   -0.5637 S.3       1 <0>         0.0610
     14 C9         -0.2691   -3.9182    0.5093 C.2       1 <0>         0.1830
     15 N3          0.1018   -2.8279   -0.1452 N.2       1 <0>        -0.5010
     16 C10        -0.9986   -4.0382    1.7897 C.ar      1 <0>        -0.0330
     17 C11        -1.4052   -2.8923    2.4747 C.ar      1 <0>        -0.0659
     18 C12        -2.0855   -3.0113    3.6690 C.ar      1 <0>        -0.1207
     19 C13        -2.3648   -4.2631    4.1878 C.ar      1 <0>        -0.0890
     20 C14        -1.9644   -5.4031    3.5137 C.ar      1 <0>        -0.1155
     21 C15        -1.2885   -5.2980    2.3156 C.ar      1 <0>        -0.0863
     22 H1          1.0001    2.1870    0.0043 H         1 <0>         0.0958
     23 H2         -0.5497    2.1708   -0.8711 H         1 <0>         0.0958
     24 H3         -0.5327    2.1613    0.9088 H         1 <0>         0.1319
     25 H4          2.0794   -2.6888   -3.6447 H         1 <0>         0.1537
     26 H5          3.6138    0.9944   -6.3884 H         1 <0>         0.4351
     27 H6          3.1154   -2.3252   -5.4782 H         1 <0>         0.4429
     28 H7          3.7692   -1.3054   -6.6424 H         1 <0>         0.4347
     29 H8          1.5770   -4.3879   -2.7227 H         1 <0>         0.1989
     30 H9         -1.1875   -1.9146    2.0709 H         1 <0>         0.1328
     31 H10        -2.4004   -2.1253    4.2003 H         1 <0>         0.1340
     32 H11        -2.8973   -4.3508    5.1233 H         1 <0>         0.1331
     33 H12        -2.1852   -6.3773    3.9242 H         1 <0>         0.1357
     34 H13        -0.9808   -6.1887    1.7879 H         1 <0>         0.1281
     35 H14         2.8473    1.6408   -5.0403 H         1 <0>         0.4410
@<TRIPOS>BOND
     1    1    2 1
     2    1   22 1
     3    1   23 1
     4    1   24 1
     5    2    3 1
     6    3    7 1
     7    3    4 2
     8    4    5 1
     9    4   11 1
    10    5    6 2
    11    5   25 1
    12    6    7 1
    13    6    8 1
    14    8    9 2
    15    8   10 1
    16    9   26 1
    17    9   35 1
    18   10   27 1
    19   10   28 1
    20   11   15 1
    21   11   12 2
    22   12   13 1
    23   12   29 1
    24   13   14 1
    25   14   15 2
    26   14   16 1
    27   16   21 ar
    28   16   17 ar
    29   17   18 ar
    30   17   30 1
    31   18   19 ar
    32   18   31 1
    33   19   20 ar
    34   19   32 1
    35   20   21 ar
    36   20   33 1
    37   21   34 1
@<TRIPOS>MOLECULE
CHEMBL282625
   38    41     0     0     0
SMALL
USER_CHARGES

@<TRIPOS>ATOM
      1 C1         -0.0167    1.3780    0.0096 C.ar      1 <0>        -0.0315
      2 C2          1.1763    2.0809    0.0020 C.ar      1 <0>        -0.1302
      3 C3          2.3973    1.4256   -0.0132 C.ar      1 <0>         0.0428
      4 C4          2.4489   -0.0060   -0.0213 C.ar      1 <0>        -0.1334
      5 C5          3.5815   -0.8328   -0.0361 C.2       1 <0>         0.0179
      6 C6          3.4356   -2.1857   -0.0416 C.2       1 <0>        -0.2813
      7 S1          1.6633   -2.3933   -0.0261 S.3       1 <0>         0.1331
      8 C7          1.2051   -0.6778   -0.0131 C.ar      1 <0>        -0.0647
      9 C8          0.0021   -0.0041    0.0020 C.ar      1 <0>        -0.0976
     10 C9          4.4805   -3.2210   -0.0570 C.cat     1 <0>         0.6499
     11 N1          4.1409   -4.5121   -0.0603 N.pl3     1 <0>        -0.7605
     12 N2          5.7683   -2.8696   -0.0677 N.pl3     1 <0>        -0.7602
     13 C10         3.6447    2.2027   -0.0214 C.2       1 <0>        -0.1524
     14 C11         3.5996    3.5474   -0.0142 C.2       1 <0>        -0.0438
     15 C12         4.8493    4.3260   -0.0224 C.ar      1 <0>        -0.0702
     16 C13         6.0840    3.6702   -0.0436 C.ar      1 <0>        -0.0931
     17 C14         7.2523    4.4016   -0.0518 C.ar      1 <0>        -0.1033
     18 C15         7.2087    5.7887   -0.0392 C.ar      1 <0>         0.0504
     19 C16         5.9806    6.4497   -0.0179 C.ar      1 <0>         0.0357
     20 C17         4.8050    5.7233   -0.0150 C.ar      1 <0>        -0.0783
     21 O1          6.2103    7.7956   -0.0095 O.3       1 <0>        -0.3044
     22 C18         7.5859    7.9481    0.3873 C.3       1 <0>         0.2121
     23 O2          8.2049    6.7219   -0.0443 O.3       1 <0>        -0.3043
     24 H1         -0.9578    1.9075    0.0259 H         1 <0>         0.1527
     25 H2          1.1549    3.1607    0.0076 H         1 <0>         0.1451
     26 H3          4.5692   -0.3960   -0.0434 H         1 <0>         0.1478
     27 H4         -0.9259   -0.5565    0.0079 H         1 <0>         0.1462
     28 H5          3.2052   -4.7674   -0.0526 H         1 <0>         0.4451
     29 H6          6.0150   -1.9315   -0.0653 H         1 <0>         0.4442
     30 H7          6.4573   -3.5523   -0.0779 H         1 <0>         0.4370
     31 H8          4.5975    1.6944   -0.0332 H         1 <0>         0.1273
     32 H9          2.6467    4.0557   -0.0024 H         1 <0>         0.1342
     33 H10         6.1223    2.5909   -0.0531 H         1 <0>         0.1375
     34 H11         8.2051    3.8934   -0.0678 H         1 <0>         0.1407
     35 H12         3.8535    6.2342   -0.0032 H         1 <0>         0.1428
     36 H13         8.0373    8.8028   -0.1165 H         1 <0>         0.1389
     37 H14         7.6627    8.0556    1.4692 H         1 <0>         0.0911
     38 H15         4.8299   -5.1948   -0.0705 H         1 <0>         0.4370
@<TRIPOS>BOND
     1    1    9 ar
     2    1    2 ar
     3    1   24 1
     4    2    3 ar
     5    2   25 1
     6    3    4 ar
     7    3   13 1
     8    4    8 ar
     9    4    5 1
    10    5    6 2
    11    5   26 1
    12    6    7 1
    13    6   10 1
    14    7    8 1
    15    8    9 ar
    16    9   27 1
    17   10   11 2
    18   10   12 1
    19   11   28 1
    20   11   38 1
    21   12   29 1
    22   12   30 1
    23   13   14 2
    24   13   31 1
    25   14   15 1
    26   14   32 1
    27   15   20 ar
    28   15   16 ar
    29   16   17 ar
    30   16   33 1
    31   17   18 ar
    32   17   34 1
    33   18   23 1
    34   18   19 ar
    35   19   20 ar
    36   19   21 1
    37   20   35 1
    38   21   22 1
    39   22   23 1
    40   22   36 1
    41   22   37 1
@<TRIPOS>MOLECULE
CHEMBL320817
   39    41     0     0     0
SMALL
USER_CHARGES

@<TRIPOS>ATOM
      1 C1         -0.5434    1.3685    0.3560 C.3       1 <0>         0.0185
      2 O1         -0.3463   -0.0413    0.2312 O.3       1 <0>        -0.2887
      3 C2          0.4511   -0.6370    1.1563 C.ar      1 <0>         0.1530
      4 C3          1.0270    0.1343    2.1707 C.ar      1 <0>        -0.1560
      5 C4          1.8295   -0.4331    3.1110 C.ar      1 <0>        -0.0725
      6 C5          2.0874   -1.8140    3.0678 C.ar      1 <0>        -0.0469
      7 C6          2.9130   -2.4270    4.0278 C.ar      1 <0>        -0.0635
      8 C7          3.1487   -3.7626    3.9678 C.ar      1 <0>        -0.1110
      9 C8          2.5773   -4.5509    2.9535 C.ar      1 <0>        -0.1440
     10 C9          1.7604   -3.9778    1.9942 C.ar      1 <0>        -0.0333
     11 C10         1.5047   -2.5986    2.0401 C.ar      1 <0>        -0.0186
     12 C11         0.6755   -1.9823    1.0869 C.ar      1 <0>        -0.1115
     13 C12         0.0422   -2.8006   -0.0087 C.3       1 <0>        -0.0750
     14 C13         0.4992   -2.2924   -1.3978 C.3       1 <0>        -0.1439
     15 C14        -0.8115   -2.3749   -2.2210 C.3       1 <0>         0.0479
     16 O2         -1.8298   -1.9904   -1.2725 O.3       1 <0>        -0.3619
     17 C15        -1.4857   -2.6002   -0.0171 C.3       1 <0>         0.0618
     18 C16         2.8515   -6.0037    2.9109 C.cat     1 <0>         0.6018
     19 N1          4.0082   -6.4768    3.3710 N.pl3     1 <0>        -0.7572
     20 N2          1.9416   -6.8387    2.4124 N.pl3     1 <0>        -0.7612
     21 H1          0.4179    1.8775    0.2854 H         1 <0>         0.0599
     22 H2         -1.1981    1.7160   -0.4432 H         1 <0>         0.1107
     23 H3         -1.0004    1.5875    1.3211 H         1 <0>         0.0607
     24 H4          0.8320    1.1959    2.2079 H         1 <0>         0.1456
     25 H5          2.2674    0.1756    3.8882 H         1 <0>         0.1461
     26 H6          3.3598   -1.8348    4.8127 H         1 <0>         0.1485
     27 H7          3.7838   -4.2256    4.7086 H         1 <0>         0.1369
     28 H8          1.3238   -4.5869    1.2166 H         1 <0>         0.1437
     29 H9          0.2880   -3.8555    0.1136 H         1 <0>         0.0860
     30 H10         0.8567   -1.2644   -1.3376 H         1 <0>         0.0864
     31 H11         1.2644   -2.9449   -1.8183 H         1 <0>         0.0793
     32 H12        -0.7835   -1.6773   -3.0581 H         1 <0>         0.0960
     33 H13        -0.9799   -3.3925   -2.5736 H         1 <0>         0.0602
     34 H14        -1.9864   -3.5638    0.0765 H         1 <0>         0.0588
     35 H15        -1.7783   -1.9468    0.8049 H         1 <0>         0.0846
     36 H16         4.1880   -7.4296    3.3431 H         1 <0>         0.4328
     37 H17         1.0990   -6.4941    2.0773 H         1 <0>         0.4452
     38 H18         2.1214   -7.7915    2.3845 H         1 <0>         0.4333
     39 H19         4.6709   -5.8686    3.7341 H         1 <0>         0.4471
@<TRIPOS>BOND
     1    1    2 1
     2    1   21 1
     3    1   22 1
     4    1   23 1
     5    2    3 1
     6    3   12 ar
     7    3    4 ar
     8    4    5 ar
     9    4   24 1
    10    5    6 ar
    11    5   25 1
    12    6   11 ar
    13    6    7 ar
    14    7    8 ar
    15    7   26 1
    16    8    9 ar
    17    8   27 1
    18    9   10 ar
    19    9   18 1
    20   10   11 ar
    21   10   28 1
    22   11   12 ar
    23   12   13 1
    24   13   17 1
    25   13   14 1
    26   13   29 1
    27   14   15 1
    28   14   30 1
    29   14   31 1
    30   15   16 1
    31   15   32 1
    32   15   33 1
    33   16   17 1
    34   17   34 1
    35   17   35 1
    36   18   19 2
    37   18   20 1
    38   19   36 1
    39   19   39 1
    40   20   37 1
    41   20   38 1
@<TRIPOS>MOLECULE
CHEMBL320817__1
   39    41     0     0     0
SMALL
USER_CHARGES

@<TRIPOS>ATOM
      1 C1         -0.0173    1.4248    0.0099 C.3       1 <0>         0.0164
      2 O1          0.0021   -0.0041    0.0020 O.3       1 <0>        -0.2976
      3 C2          0.6257   -0.6183    1.0414 C.ar      1 <0>         0.1521
      4 C3          1.2035    0.1542    2.0538 C.ar      1 <0>        -0.1548
      5 C4          1.8346   -0.4315    3.1069 C.ar      1 <0>        -0.0718
      6 C5          1.9103   -1.8328    3.1842 C.ar      1 <0>        -0.0455
      7 C6          2.5564   -2.4648    4.2622 C.ar      1 <0>        -0.0638
      8 C7          2.6178   -3.8199    4.3175 C.ar      1 <0>        -0.1098
      9 C8          2.0421   -4.6097    3.3067 C.ar      1 <0>        -0.1434
     10 C9          1.3993   -4.0181    2.2331 C.ar      1 <0>        -0.0331
     11 C10         1.3253   -2.6186    2.1587 C.ar      1 <0>        -0.0187
     12 C11         0.6755   -1.9823    1.0869 C.ar      1 <0>        -0.1075
     13 C12         0.0422   -2.8006   -0.0087 C.3       1 <0>        -0.0757
     14 C13        -1.4475   -2.4064   -0.2023 C.3       1 <0>        -0.1498
     15 C14        -1.6526   -2.7571   -1.6975 C.3       1 <0>         0.0522
     16 O2         -0.4119   -2.4165   -2.3363 O.3       1 <0>        -0.3755
     17 C15         0.6552   -2.4491   -1.3813 C.3       1 <0>         0.0636
     18 C16         2.1243   -6.0840    3.3912 C.cat     1 <0>         0.6017
     19 N1          3.1613   -6.6595    3.9970 N.pl3     1 <0>        -0.7569
     20 N2          1.1612   -6.8361    2.8615 N.pl3     1 <0>        -0.7610
     21 H1          1.0053    1.8021    0.0021 H         1 <0>         0.0625
     22 H2         -0.5445    1.7859   -0.8732 H         1 <0>         0.1111
     23 H3         -0.5275    1.7763    0.9067 H         1 <0>         0.0620
     24 H4          1.1482    1.2313    1.9986 H         1 <0>         0.1463
     25 H5          2.2764    0.1783    3.8810 H         1 <0>         0.1469
     26 H6          3.0041   -1.8718    5.0459 H         1 <0>         0.1491
     27 H7          3.1156   -4.2974    5.1485 H         1 <0>         0.1374
     28 H8          0.9587   -4.6285    1.4587 H         1 <0>         0.1440
     29 H9          0.1410   -3.8661    0.1988 H         1 <0>         0.0880
     30 H10        -2.0983   -3.0055    0.4346 H         1 <0>         0.0824
     31 H11        -1.5984   -1.3417   -0.0242 H         1 <0>         0.0967
     32 H12        -1.8572   -3.8217   -1.8118 H         1 <0>         0.0604
     33 H13        -2.4681   -2.1673   -2.1160 H         1 <0>         0.0897
     34 H14         1.1371   -1.4727   -1.3319 H         1 <0>         0.0775
     35 H15         1.3835   -3.2083   -1.6664 H         1 <0>         0.0663
     36 H16         3.2153   -7.6264    4.0524 H         1 <0>         0.4330
     37 H17         0.4059   -6.4170    2.4203 H         1 <0>         0.4452
     38 H18         1.2152   -7.8030    2.9169 H         1 <0>         0.4335
     39 H19         3.8628   -6.1117    4.3828 H         1 <0>         0.4472
@<TRIPOS>BOND
     1    1    2 1
     2    1   21 1
     3    1   22 1
     4    1   23 1
     5    2    3 1
     6    3   12 ar
     7    3    4 ar
     8    4    5 ar
     9    4   24 1
    10    5    6 ar
    11    5   25 1
    12    6   11 ar
    13    6    7 ar
    14    7    8 ar
    15    7   26 1
    16    8    9 ar
    17    8   27 1
    18    9   10 ar
    19    9   18 1
    20   10   11 ar
    21   10   28 1
    22   11   12 ar
    23   12   13 1
    24   13   17 1
    25   13   14 1
    26   13   29 1
    27   14   15 1
    28   14   30 1
    29   14   31 1
    30   15   16 1
    31   15   32 1
    32   15   33 1
    33   16   17 1
    34   17   34 1
    35   17   35 1
    36   18   19 2
    37   18   20 1
    38   19   36 1
    39   19   39 1
    40   20   37 1
    41   20   38 1
@<TRIPOS>MOLECULE
CHEMBL366666
   64    66     0     0     0
SMALL
USER_CHARGES

@<TRIPOS>ATOM
      1 C1          1.4697    3.6486    0.2503 C.ar      1 <0>        -0.1058
      2 C2          2.7390    4.1887    0.3403 C.ar      1 <0>        -0.1228
      3 C3          3.8462    3.3618    0.3043 C.ar      1 <0>        -0.0930
      4 C4          3.6840    1.9947    0.1787 C.ar      1 <0>        -0.1033
      5 C5          2.4147    1.4546    0.0896 C.ar      1 <0>        -0.0932
      6 C6          1.3076    2.2816    0.1242 C.ar      1 <0>        -0.1230
      7 C7          4.8910    1.0933    0.1385 C.3       1 <0>         0.1289
      8 O1          5.2291    0.6903    1.4672 O.3       1 <0>        -0.3539
      9 C8          6.2924   -0.1236    1.6072 C.2       1 <0>         0.6554
     10 O2          6.9163   -0.4819    0.6280 O.2       1 <0>        -0.5715
     11 N1          6.6648   -0.5408    2.8334 N.am      1 <0>        -0.6884
     12 C9          7.8219   -1.4264    2.9857 C.3       1 <0>         0.1588
     13 H1          8.5765   -1.1694    2.2424 H         1 <0>         0.1324
     14 C10         7.3827   -2.8783    2.7857 C.3       1 <0>         0.0675
     15 O3          6.4811   -3.2514    3.8296 O.3       1 <0>        -0.5604
     16 C11         8.4014   -1.2627    4.3672 C.2       1 <0>         0.5617
     17 O4          7.8974   -0.4830    5.1477 O.2       1 <0>        -0.5184
     18 N2          9.4796   -1.9827    4.7354 N.am      1 <0>        -0.6199
     19 C12        10.3489   -2.9863    4.1032 C.3       1 <0>         0.0911
     20 C13        11.4732   -2.5238    5.0403 C.3       1 <0>        -0.1358
     21 C14        10.3085   -2.1056    5.9440 C.3       1 <0>         0.1124
     22 C15         9.8509   -3.1969    6.8771 C.2       1 <0>         0.5206
     23 O5          8.8830   -3.8706    6.5939 O.2       1 <0>        -0.5051
     24 N3         10.5173   -3.4243    8.0263 N.am      1 <0>        -0.7217
     25 C16        10.0726   -4.4853    8.9333 C.3       1 <0>         0.1433
     26 H2          8.9849   -4.5522    8.9093 H         1 <0>         0.1057
     27 C17        10.6763   -5.8207    8.4925 C.3       1 <0>        -0.1353
     28 C18        10.1861   -6.9350    9.4198 C.3       1 <0>        -0.1373
     29 C19        10.6494   -6.6439   10.8507 C.3       1 <0>         0.1075
     30 N4         10.1950   -5.2992   11.2305 N.pl3     1 <0>        -0.6339
     31 C20        10.5338   -4.1659   10.3588 C.3       1 <0>         0.3211
     32 O6          9.8717   -2.9882   10.8241 O.3       1 <0>        -0.5446
     33 C21         9.4696   -5.1058   12.3739 C.cat     1 <0>         0.7465
     34 N5          8.4786   -4.2161   12.3914 N.pl3     1 <0>        -0.7769
     35 N6          9.7544   -5.8072   13.4699 N.pl3     1 <0>        -0.7859
     36 H3          0.6046    4.2943    0.2829 H         1 <0>         0.1262
     37 H4          2.8657    5.2567    0.4384 H         1 <0>         0.1271
     38 H5          4.8379    3.7838    0.3739 H         1 <0>         0.1249
     39 H6          2.2880    0.3865   -0.0088 H         1 <0>         0.1246
     40 H7          0.3159    1.8597    0.0542 H         1 <0>         0.1269
     41 H8          4.6665    0.2120   -0.4624 H         1 <0>         0.0797
     42 H9          5.7307    1.6299   -0.3032 H         1 <0>         0.0801
     43 H10         6.1668   -0.2548    3.6151 H         1 <0>         0.4202
     44 H11         6.8835   -2.9774    1.8218 H         1 <0>         0.0684
     45 H12         8.2568   -3.5290    2.8107 H         1 <0>         0.0625
     46 H13         6.1611   -4.1617    3.7663 H         1 <0>         0.3847
     47 H14        10.0289   -4.0127    4.2827 H         1 <0>         0.0940
     48 H15        10.5505   -2.7850    3.0510 H         1 <0>         0.0923
     49 H16        12.0833   -3.3337    5.4401 H         1 <0>         0.0977
     50 H17        12.0593   -1.6886    4.6569 H         1 <0>         0.1149
     51 H18        10.4756   -1.1569    6.4540 H         1 <0>         0.1174
     52 H19        11.2915   -2.8855    8.2528 H         1 <0>         0.4065
     53 H20        10.3690   -6.0380    7.4695 H         1 <0>         0.0944
     54 H21        11.7636   -5.7608    8.5398 H         1 <0>         0.0808
     55 H22         9.0974   -6.9790    9.3918 H         1 <0>         0.0803
     56 H23        10.5978   -7.8893    9.0912 H         1 <0>         0.1049
     57 H24        10.2205   -7.3801   11.5305 H         1 <0>         0.0985
     58 H25        11.7374   -6.6891   10.8988 H         1 <0>         0.1014
     59 H26        11.6124   -4.0088   10.3673 H         1 <0>         0.1111
     60 H27        10.1768   -2.6810   11.6888 H         1 <0>         0.3950
     61 H28         8.2112   -3.7718   11.5717 H         1 <0>         0.4492
     62 H29        10.4274   -6.5050   13.4379 H         1 <0>         0.4401
     63 H30         9.2887   -5.6201   14.3000 H         1 <0>         0.4392
     64 H31         8.0243   -4.0124   13.2239 H         1 <0>         0.4337
@<TRIPOS>BOND
     1    1    6 ar
     2    1    2 ar
     3    1   36 1
     4    2    3 ar
     5    2   37 1
     6    3    4 ar
     7    3   38 1
     8    4    5 ar
     9    4    7 1
    10    5    6 ar
    11    5   39 1
    12    6   40 1
    13    7    8 1
    14    7   41 1
    15    7   42 1
    16    8    9 1
    17    9   10 2
    18    9   11 am
    19   11   12 1
    20   11   43 1
    21   12   13 1
    22   12   14 1
    23   12   16 1
    24   14   15 1
    25   14   44 1
    26   14   45 1
    27   15   46 1
    28   16   17 2
    29   16   18 am
    30   18   21 1
    31   18   19 1
    32   19   20 1
    33   19   47 1
    34   19   48 1
    35   20   21 1
    36   20   49 1
    37   20   50 1
    38   21   22 1
    39   21   51 1
    40   22   23 2
    41   22   24 am
    42   24   25 1
    43   24   52 1
    44   25   26 1
    45   25   31 1
    46   25   27 1
    47   27   28 1
    48   27   53 1
    49   27   54 1
    50   28   29 1
    51   28   55 1
    52   28   56 1
    53   29   30 1
    54   29   57 1
    55   29   58 1
    56   30   31 1
    57   30   33 1
    58   31   32 1
    59   31   59 1
    60   32   60 1
    61   33   34 2
    62   33   35 1
    63   34   61 1
    64   34   64 1
    65   35   62 1
    66   35   63 1
@<TRIPOS>MOLECULE
CHEMBL366666__1
   64    66     0     0     0
SMALL
USER_CHARGES

@<TRIPOS>ATOM
      1 C1         -0.0167    1.3781    0.0096 C.ar      1 <0>        -0.1058
      2 C2          1.1709    2.0855    0.0021 C.ar      1 <0>        -0.1228
      3 C3          2.3773    1.4107   -0.0130 C.ar      1 <0>        -0.0930
      4 C4          2.3960    0.0285   -0.0201 C.ar      1 <0>        -0.1032
      5 C5          1.2084   -0.6789   -0.0117 C.ar      1 <0>        -0.0932
      6 C6          0.0021   -0.0041    0.0020 C.ar      1 <0>        -0.1230
      7 C7          3.7112   -0.7071   -0.0376 C.3       1 <0>         0.1288
      8 O1          4.1410   -0.9464    1.3041 O.3       1 <0>        -0.3539
      9 C8          5.3077   -1.5988    1.4650 C.2       1 <0>         0.6554
     10 O2          5.9435   -1.9553    0.4929 O.2       1 <0>        -0.5713
     11 N1          5.7703   -1.8565    2.7044 N.am      1 <0>        -0.6885
     12 C9          7.0397   -2.5664    2.8795 C.3       1 <0>         0.1586
     13 H1          7.7298   -2.2778    2.0867 H         1 <0>         0.1326
     14 C10         6.7932   -4.0752    2.8168 C.3       1 <0>         0.0674
     15 O3          5.9823   -4.4718    3.9245 O.3       1 <0>        -0.5605
     16 C11         7.6343   -2.2098    4.2176 C.2       1 <0>         0.5620
     17 O4          7.0547   -1.4386    4.9525 O.2       1 <0>        -0.5195
     18 N2          8.8101   -2.7480    4.5975 N.am      1 <0>        -0.6198
     19 C12         9.7863   -3.6798    4.0130 C.3       1 <0>         0.0912
     20 C13        10.8667   -2.9950    4.8614 C.3       1 <0>        -0.1355
     21 C14         9.6848   -2.6567    5.7762 C.3       1 <0>         0.1124
     22 C15         9.4067   -3.7141    6.8133 C.2       1 <0>         0.5178
     23 O5          8.5296   -4.5306    6.6267 O.2       1 <0>        -0.5065
     24 N3         10.1327   -3.7524    7.9482 N.am      1 <0>        -0.7221
     25 C16         9.8623   -4.7803    8.9564 C.3       1 <0>         0.1545
     26 H2          8.7932   -4.9909    8.9835 H         1 <0>         0.1100
     27 C17        10.6258   -6.0581    8.6005 C.3       1 <0>        -0.1361
     28 C18        10.3182   -7.1430    9.6352 C.3       1 <0>        -0.1379
     29 C19        10.7821   -6.6715   11.0169 C.3       1 <0>         0.1071
     30 N4         10.1635   -5.3703   11.3049 N.pl3     1 <0>        -0.6259
     31 C20        10.3203   -4.2817   10.3305 C.3       1 <0>         0.3132
     32 O6         11.6936   -3.8920   10.2655 O.3       1 <0>        -0.5404
     33 C21         9.4543   -5.1757   12.4583 C.cat     1 <0>         0.7528
     34 N5          8.7286   -6.1688   12.9694 N.pl3     1 <0>        -0.7795
     35 N6          9.4895   -3.9932   13.0703 N.pl3     1 <0>        -0.7869
     36 H3         -0.9591    1.9053    0.0259 H         1 <0>         0.1262
     37 H4          1.1563    3.1654    0.0076 H         1 <0>         0.1271
     38 H5          3.3051    1.9634   -0.0196 H         1 <0>         0.1249
     39 H6          1.2231   -1.7588   -0.0176 H         1 <0>         0.1246
     40 H7         -0.9258   -0.5567    0.0082 H         1 <0>         0.1269
     41 H8          3.5884   -1.6586   -0.5549 H         1 <0>         0.0798
     42 H9          4.4573   -0.1052   -0.5563 H         1 <0>         0.0802
     43 H10         5.2627   -1.5719    3.4805 H         1 <0>         0.4201
     44 H11         6.2823   -4.3214    1.8859 H         1 <0>         0.0684
     45 H12         7.7470   -4.6012    2.8579 H         1 <0>         0.0628
     46 H13         5.7854   -5.4182    3.9489 H         1 <0>         0.3847
     47 H14         9.6124   -4.7199    4.2887 H         1 <0>         0.0941
     48 H15         9.9265   -3.5453    2.9405 H         1 <0>         0.0925
     49 H16        11.5920   -3.6805    5.2998 H         1 <0>         0.0986
     50 H17        11.3235   -2.1263    4.3871 H         1 <0>         0.1152
     51 H18         9.7390   -1.6538    6.1999 H         1 <0>         0.1173
     52 H19        10.8342   -3.0993    8.0974 H         1 <0>         0.4122
     53 H20        10.3190   -6.4011    7.6125 H         1 <0>         0.0871
     54 H21        11.6962   -5.8525    8.5972 H         1 <0>         0.0864
     55 H22         9.2448   -7.3315    9.6565 H         1 <0>         0.0776
     56 H23        10.8438   -8.0598    9.3682 H         1 <0>         0.1017
     57 H24        10.4770   -7.3962   11.7718 H         1 <0>         0.0932
     58 H25        11.8673   -6.5695   11.0229 H         1 <0>         0.1059
     59 H26         9.7106   -3.4300   10.6321 H         1 <0>         0.0982
     60 H27        12.0499   -3.5653   11.1030 H         1 <0>         0.3927
     61 H28         8.7029   -7.0299   12.5237 H         1 <0>         0.4427
     62 H29        10.0181   -3.2700   12.6981 H         1 <0>         0.4380
     63 H30         8.9867   -3.8553   13.8882 H         1 <0>         0.4416
     64 H31         8.2257   -6.0308   13.7873 H         1 <0>         0.4407
@<TRIPOS>BOND
     1    1    6 ar
     2    1    2 ar
     3    1   36 1
     4    2    3 ar
     5    2   37 1
     6    3    4 ar
     7    3   38 1
     8    4    5 ar
     9    4    7 1
    10    5    6 ar
    11    5   39 1
    12    6   40 1
    13    7    8 1
    14    7   41 1
    15    7   42 1
    16    8    9 1
    17    9   10 2
    18    9   11 am
    19   11   12 1
    20   11   43 1
    21   12   13 1
    22   12   14 1
    23   12   16 1
    24   14   15 1
    25   14   44 1
    26   14   45 1
    27   15   46 1
    28   16   17 2
    29   16   18 am
    30   18   21 1
    31   18   19 1
    32   19   20 1
    33   19   47 1
    34   19   48 1
    35   20   21 1
    36   20   49 1
    37   20   50 1
    38   21   22 1
    39   21   51 1
    40   22   23 2
    41   22   24 am
    42   24   25 1
    43   24   52 1
    44   25   26 1
    45   25   31 1
    46   25   27 1
    47   27   28 1
    48   27   53 1
    49   27   54 1
    50   28   29 1
    51   28   55 1
    52   28   56 1
    53   29   30 1
    54   29   57 1
    55   29   58 1
    56   30   31 1
    57   30   33 1
    58   31   32 1
    59   31   59 1
    60   32   60 1
    61   33   34 2
    62   33   35 1
    63   34   61 1
    64   34   64 1
    65   35   62 1
    66   35   63 1
@<TRIPOS>MOLECULE
CHEMBL366666__2
   64    66     0     0     0
SMALL
USER_CHARGES

@<TRIPOS>ATOM
      1 C1          0.9404   -0.3307   -0.9432 C.ar      1 <0>        -0.1058
      2 C2          2.1068    0.4110   -0.9332 C.ar      1 <0>        -0.1233
      3 C3          3.3242   -0.2178   -0.7505 C.ar      1 <0>        -0.0936
      4 C4          3.3751   -1.5883   -0.5772 C.ar      1 <0>        -0.1030
      5 C5          2.2086   -2.3299   -0.5863 C.ar      1 <0>        -0.0927
      6 C6          0.9913   -1.7013   -0.7705 C.ar      1 <0>        -0.1225
      7 C7          4.7024   -2.2739   -0.3790 C.3       1 <0>         0.1289
      8 O1          5.0077   -2.3265    1.0160 O.3       1 <0>        -0.3541
      9 C8          6.1684   -2.9123    1.3660 C.2       1 <0>         0.6552
     10 O2          6.9019   -3.3665    0.5104 O.2       1 <0>        -0.5727
     11 N1          6.5165   -2.9949    2.6654 N.am      1 <0>        -0.6871
     12 C9          7.7794   -3.6323    3.0463 C.3       1 <0>         0.1585
     13 H1          8.5351   -3.4223    2.2894 H         1 <0>         0.1294
     14 C10         7.5745   -5.1445    3.1566 C.3       1 <0>         0.0650
     15 O3          6.6710   -5.4260    4.2273 O.3       1 <0>        -0.5651
     16 C11         8.2354   -3.0889    4.3759 C.2       1 <0>         0.5568
     17 O4          7.5709   -2.2516    4.9489 O.2       1 <0>        -0.4958
     18 N2          9.3816   -3.5334    4.9282 N.am      1 <0>        -0.6303
     19 C12        10.4301   -4.4970    4.5608 C.3       1 <0>         0.0946
     20 C13        11.4088   -3.6732    5.4091 C.3       1 <0>        -0.1383
     21 C14        10.1377   -3.2633    6.1604 C.3       1 <0>         0.1176
     22 C15        10.1247   -1.8122    6.5666 C.2       1 <0>         0.5113
     23 O5          9.5268   -0.9994    5.8937 O.2       1 <0>        -0.4888
     24 N3         10.7774   -1.4176    7.6778 N.am      1 <0>        -0.7260
     25 C16        10.7648   -0.0069    8.0727 C.3       1 <0>         0.1457
     26 H2         10.7733    0.6205    7.1814 H         1 <0>         0.1042
     27 C17         9.5037    0.2835    8.8898 C.3       1 <0>        -0.1371
     28 C18         9.4732    1.7644    9.2750 C.3       1 <0>        -0.1370
     29 C19        10.6951    2.0881   10.1403 C.3       1 <0>         0.1079
     30 N4         11.9075    1.6770    9.4192 N.pl3     1 <0>        -0.6331
     31 C20        12.0018    0.2970    8.9237 C.3       1 <0>         0.3219
     32 O6         13.1789    0.1529    8.1265 O.3       1 <0>        -0.5452
     33 C21        12.9294    2.5625    9.2125 C.cat     1 <0>         0.7465
     34 N5         13.6040    2.5446    8.0641 N.pl3     1 <0>        -0.7777
     35 N6         13.2498    3.4427   10.1594 N.pl3     1 <0>        -0.7860
     36 H3         -0.0112    0.1611   -1.0815 H         1 <0>         0.1262
     37 H4          2.0670    1.4818   -1.0685 H         1 <0>         0.1266
     38 H5          4.2356    0.3616   -0.7434 H         1 <0>         0.1241
     39 H6          2.2484   -3.4007   -0.4514 H         1 <0>         0.1251
     40 H7          0.0800   -2.2807   -0.7780 H         1 <0>         0.1274
     41 H8          4.6513   -3.2869   -0.7782 H         1 <0>         0.0799
     42 H9          5.4806   -1.7168   -0.9005 H         1 <0>         0.0793
     43 H10         5.9309   -2.6324    3.3484 H         1 <0>         0.4202
     44 H11         7.1604   -5.5242    2.2225 H         1 <0>         0.0690
     45 H12         8.5318   -5.6276    3.3525 H         1 <0>         0.0639
     46 H13         6.4943   -6.3680    4.3555 H         1 <0>         0.3867
     47 H14        10.2545   -5.4994    4.9514 H         1 <0>         0.0974
     48 H15        10.6688   -4.4943    3.4973 H         1 <0>         0.0906
     49 H16        12.1045   -4.2721    5.9969 H         1 <0>         0.1048
     50 H17        11.8888   -2.8561    4.8704 H         1 <0>         0.1013
     51 H18         9.8835   -3.9337    6.9814 H         1 <0>         0.1204
     52 H19        11.2556   -2.0676    8.2160 H         1 <0>         0.4038
     53 H20         8.6224    0.0449    8.2945 H         1 <0>         0.0960
     54 H21         9.5077   -0.3266    9.7930 H         1 <0>         0.0792
     55 H22         9.4941    2.3755    8.3726 H         1 <0>         0.0801
     56 H23         8.5633    1.9754    9.8368 H         1 <0>         0.1046
     57 H24        10.7315    3.1600   10.3349 H         1 <0>         0.0983
     58 H25        10.6292    1.5455   11.0833 H         1 <0>         0.1012
     59 H26        12.0429   -0.3917    9.7676 H         1 <0>         0.1104
     60 H27        14.0037    0.2505    8.6217 H         1 <0>         0.3940
     61 H28        13.3141    1.9678    7.3402 H         1 <0>         0.4488
     62 H29        12.7140    3.5042   10.9657 H         1 <0>         0.4402
     63 H30        14.0189    4.0221   10.0428 H         1 <0>         0.4389
     64 H31        14.3853    3.1084    7.9518 H         1 <0>         0.4332
@<TRIPOS>BOND
     1    1    6 ar
     2    1    2 ar
     3    1   36 1
     4    2    3 ar
     5    2   37 1
     6    3    4 ar
     7    3   38 1
     8    4    5 ar
     9    4    7 1
    10    5    6 ar
    11    5   39 1
    12    6   40 1
    13    7    8 1
    14    7   41 1
    15    7   42 1
    16    8    9 1
    17    9   10 2
    18    9   11 am
    19   11   12 1
    20   11   43 1
    21   12   13 1
    22   12   14 1
    23   12   16 1
    24   14   15 1
    25   14   44 1
    26   14   45 1
    27   15   46 1
    28   16   17 2
    29   16   18 am
    30   18   21 1
    31   18   19 1
    32   19   20 1
    33   19   47 1
    34   19   48 1
    35   20   21 1
    36   20   49 1
    37   20   50 1
    38   21   22 1
    39   21   51 1
    40   22   23 2
    41   22   24 am
    42   24   25 1
    43   24   52 1
    44   25   26 1
    45   25   31 1
    46   25   27 1
    47   27   28 1
    48   27   53 1
    49   27   54 1
    50   28   29 1
    51   28   55 1
    52   28   56 1
    53   29   30 1
    54   29   57 1
    55   29   58 1
    56   30   31 1
    57   30   33 1
    58   31   32 1
    59   31   59 1
    60   32   60 1
    61   33   34 2
    62   33   35 1
    63   34   61 1
    64   34   64 1
    65   35   62 1
    66   35   63 1
@<TRIPOS>MOLECULE
CHEMBL366666__3
   64    66     0     0     0
SMALL
USER_CHARGES

@<TRIPOS>ATOM
      1 C1         -0.0167    1.3781    0.0096 C.ar      1 <0>        -0.1058
      2 C2          1.1709    2.0855    0.0021 C.ar      1 <0>        -0.1233
      3 C3          2.3773    1.4107   -0.0130 C.ar      1 <0>        -0.0936
      4 C4          2.3960    0.0285   -0.0201 C.ar      1 <0>        -0.1030
      5 C5          1.2084   -0.6789   -0.0117 C.ar      1 <0>        -0.0927
      6 C6          0.0021   -0.0041    0.0020 C.ar      1 <0>        -0.1225
      7 C7          3.7112   -0.7071   -0.0376 C.3       1 <0>         0.1290
      8 O1          4.1410   -0.9464    1.3041 O.3       1 <0>        -0.3540
      9 C8          5.3077   -1.5988    1.4650 C.2       1 <0>         0.6553
     10 O2          5.9435   -1.9553    0.4929 O.2       1 <0>        -0.5728
     11 N1          5.7703   -1.8565    2.7044 N.am      1 <0>        -0.6871
     12 C9          7.0397   -2.5664    2.8795 C.3       1 <0>         0.1585
     13 H1          7.7298   -2.2778    2.0867 H         1 <0>         0.1293
     14 C10         6.7932   -4.0752    2.8168 C.3       1 <0>         0.0650
     15 O3          5.9823   -4.4718    3.9245 O.3       1 <0>        -0.5649
     16 C11         7.6343   -2.2098    4.2176 C.2       1 <0>         0.5565
     17 O4          7.0547   -1.4386    4.9525 O.2       1 <0>        -0.4952
     18 N2          8.8101   -2.7480    4.5975 N.am      1 <0>        -0.6306
     19 C12         9.7863   -3.6798    4.0130 C.3       1 <0>         0.0952
     20 C13        10.8667   -2.9950    4.8614 C.3       1 <0>        -0.1399
     21 C14         9.6848   -2.6567    5.7762 C.3       1 <0>         0.1178
     22 C15         9.7597   -1.2702    6.3620 C.2       1 <0>         0.5085
     23 O5          9.1314   -0.3639    5.8573 O.2       1 <0>        -0.4902
     24 N3         10.5248   -1.0374    7.4469 N.am      1 <0>        -0.7263
     25 C16        10.5976    0.3104    8.0164 C.3       1 <0>         0.1562
     26 H2         10.5463    1.0473    7.2148 H         1 <0>         0.1086
     27 C17         9.4276    0.5216    8.9800 C.3       1 <0>        -0.1379
     28 C18         9.4841    1.9406    9.5505 C.3       1 <0>        -0.1375
     29 C19        10.7907    2.1218   10.3293 C.3       1 <0>         0.1074
     30 N4         11.9169    1.7798    9.4498 N.pl3     1 <0>        -0.6252
     31 C20        11.9172    0.4735    8.7771 C.3       1 <0>         0.3141
     32 O6         12.0408   -0.5658    9.7502 O.3       1 <0>        -0.5400
     33 C21        12.9458    2.6610    9.2602 C.cat     1 <0>         0.7524
     34 N5         12.7046    3.9706    9.2334 N.pl3     1 <0>        -0.7797
     35 N6         14.1889    2.2094    9.1025 N.pl3     1 <0>        -0.7877
     36 H3         -0.9591    1.9053    0.0259 H         1 <0>         0.1262
     37 H4          1.1563    3.1654    0.0076 H         1 <0>         0.1265
     38 H5          3.3051    1.9634   -0.0196 H         1 <0>         0.1241
     39 H6          1.2231   -1.7588   -0.0176 H         1 <0>         0.1251
     40 H7         -0.9258   -0.5567    0.0082 H         1 <0>         0.1274
     41 H8          3.5884   -1.6586   -0.5549 H         1 <0>         0.0799
     42 H9          4.4573   -0.1052   -0.5563 H         1 <0>         0.0792
     43 H10         5.2627   -1.5719    3.4805 H         1 <0>         0.4202
     44 H11         6.2823   -4.3214    1.8859 H         1 <0>         0.0690
     45 H12         7.7470   -4.6012    2.8579 H         1 <0>         0.0638
     46 H13         5.7854   -5.4182    3.9489 H         1 <0>         0.3868
     47 H14         9.6124   -4.7199    4.2887 H         1 <0>         0.0977
     48 H15         9.9265   -3.5453    2.9405 H         1 <0>         0.0907
     49 H16        11.5920   -3.6805    5.2998 H         1 <0>         0.1054
     50 H17        11.3235   -2.1263    4.3871 H         1 <0>         0.1005
     51 H18         9.4837   -3.4215    6.5263 H         1 <0>         0.1214
     52 H19        11.0273   -1.7623    7.8505 H         1 <0>         0.4096
     53 H20         8.4876    0.3820    8.4461 H         1 <0>         0.0888
     54 H21         9.4930   -0.2000    9.7943 H         1 <0>         0.0847
     55 H22         9.4436    2.6625    8.7348 H         1 <0>         0.0774
     56 H23         8.6374    2.0981   10.2186 H         1 <0>         0.1013
     57 H24        10.8821    3.1585   10.6535 H         1 <0>         0.0930
     58 H25        10.7926    1.4636   11.1981 H         1 <0>         0.1058
     59 H26        12.7512    0.4225    8.0772 H         1 <0>         0.0978
     60 H27        12.8553   -0.5234   10.2696 H         1 <0>         0.3916
     61 H28        11.7993    4.2995    9.3483 H         1 <0>         0.4430
     62 H29        14.3645    1.2556    9.1220 H         1 <0>         0.4377
     63 H30        14.9185    2.8342    8.9680 H         1 <0>         0.4412
     64 H31        13.4342    4.5955    9.0989 H         1 <0>         0.4404
@<TRIPOS>BOND
     1    1    6 ar
     2    1    2 ar
     3    1   36 1
     4    2    3 ar
     5    2   37 1
     6    3    4 ar
     7    3   38 1
     8    4    5 ar
     9    4    7 1
    10    5    6 ar
    11    5   39 1
    12    6   40 1
    13    7    8 1
    14    7   41 1
    15    7   42 1
    16    8    9 1
    17    9   10 2
    18    9   11 am
    19   11   12 1
    20   11   43 1
    21   12   13 1
    22   12   14 1
    23   12   16 1
    24   14   15 1
    25   14   44 1
    26   14   45 1
    27   15   46 1
    28   16   17 2
    29   16   18 am
    30   18   21 1
    31   18   19 1
    32   19   20 1
    33   19   47 1
    34   19   48 1
    35   20   21 1
    36   20   49 1
    37   20   50 1
    38   21   22 1
    39   21   51 1
    40   22   23 2
    41   22   24 am
    42   24   25 1
    43   24   52 1
    44   25   26 1
    45   25   31 1
    46   25   27 1
    47   27   28 1
    48   27   53 1
    49   27   54 1
    50   28   29 1
    51   28   55 1
    52   28   56 1
    53   29   30 1
    54   29   57 1
    55   29   58 1
    56   30   31 1
    57   30   33 1
    58   31   32 1
    59   31   59 1
    60   32   60 1
    61   33   34 2
    62   33   35 1
    63   34   61 1
    64   34   64 1
    65   35   62 1
    66   35   63 1
@<TRIPOS>MOLECULE
CHEMBL192738
   76    78     0     0     0
SMALL
USER_CHARGES

@<TRIPOS>ATOM
      1 C1         -6.1151    2.0236   -3.0230 C.3       1 <0>        -0.1511
      2 C2         -5.2055    2.9910   -2.2629 C.3       1 <0>        -0.1359
      3 C3         -4.2014    3.6161   -3.2335 C.3       1 <0>         0.1451
      4 H1         -4.7373    4.0822   -4.0604 H         1 <0>         0.0855
      5 C4         -3.3745    4.6743   -2.5005 C.3       1 <0>        -0.1687
      6 N1         -3.3116    2.5748   -3.7535 N.am      1 <0>        -0.7202
      7 C5         -2.7050    2.7404   -4.9456 C.2       1 <0>         0.5630
      8 O1         -2.8961    3.7536   -5.5892 O.2       1 <0>        -0.5333
      9 C6         -1.8068    1.6893   -5.4704 C.ar      1 <0>        -0.0873
     10 C7         -1.1748    1.8623   -6.7001 C.ar      1 <0>        -0.1121
     11 C8         -0.3288    0.8689   -7.1913 C.ar      1 <0>        -0.0073
     12 C9         -0.1177   -0.2954   -6.4498 C.ar      1 <0>        -0.1448
     13 C10        -0.7490   -0.4641   -5.2264 C.ar      1 <0>         0.2197
     14 C11        -1.5868    0.5257   -4.7319 C.ar      1 <0>        -0.1600
     15 N2         -0.5360   -1.6306   -4.4871 N.pl3     1 <0>        -0.8729
     16 C12         0.3430    1.0477   -8.4948 C.2       1 <0>         0.0582
     17 C13         1.7085    0.9231   -8.5812 C.2       1 <0>         0.0625
     18 N3          2.3466    1.0771   -9.7368 N.2       1 <0>        -0.5015
     19 C14         1.6871    1.3553  -10.8423 C.2       1 <0>         0.3619
     20 C15         0.2286    1.4967  -10.7962 C.2       1 <0>         0.4970
     21 O2         -0.4036    1.7536  -11.8068 O.2       1 <0>        -0.5292
     22 N4         -0.4018    1.3315   -9.6122 N.am      1 <0>        -0.4581
     23 C16        -1.8585    1.4585   -9.5217 C.3       1 <0>         0.0774
     24 C17        -2.2282    2.9128   -9.3825 C.2       1 <0>         0.5093
     25 O3         -1.3604    3.7598   -9.3610 O.2       1 <0>        -0.5074
     26 N5         -3.5232    3.2723   -9.2820 N.am      1 <0>        -0.7227
     27 C18        -3.8827    4.6860   -9.1467 C.3       1 <0>         0.1484
     28 C19        -5.3811    4.8167   -9.0536 C.ar      1 <0>        -0.0329
     29 C20        -6.1322    4.9684  -10.2056 C.ar      1 <0>        -0.0966
     30 C21        -7.5044    5.0890  -10.1271 C.ar      1 <0>        -0.0590
     31 C22        -8.1344    5.0573   -8.8827 C.ar      1 <0>        -0.1528
     32 C23        -7.3714    4.9036   -7.7248 C.ar      1 <0>        -0.0592
     33 C24        -6.0004    4.7789   -7.8171 C.ar      1 <0>        -0.0909
     34 C25        -9.6056    5.1866   -8.7912 C.cat     1 <0>         0.6009
     35 N6        -10.2040    5.1560   -7.6022 N.pl3     1 <0>        -0.7617
     36 N7        -10.3310    5.3335   -9.8980 N.pl3     1 <0>        -0.7612
     37 N8          2.3677    1.5138  -12.0418 N.pl3     1 <0>        -0.6811
     38 C26         3.8252    1.3717  -12.0814 C.3       1 <0>         0.1474
     39 C27         4.2606    0.9720  -13.4926 C.3       1 <0>        -0.1642
     40 C28         4.4778    2.7032  -11.7042 C.3       1 <0>        -0.1646
     41 H2         -6.6517    2.5655   -3.8018 H         1 <0>         0.0503
     42 H3         -5.5113    1.2380   -3.4771 H         1 <0>         0.0552
     43 H4         -6.8304    1.5783   -2.3315 H         1 <0>         0.0585
     44 H5         -5.8093    3.7766   -1.8088 H         1 <0>         0.0806
     45 H6         -4.6689    2.4491   -1.4841 H         1 <0>         0.0711
     46 H7         -2.8386    4.2081   -1.6737 H         1 <0>         0.0595
     47 H8         -2.6592    5.1196   -3.1920 H         1 <0>         0.0631
     48 H9         -4.0365    5.4490   -2.1137 H         1 <0>         0.0668
     49 H10        -3.1591    1.7663   -3.2398 H         1 <0>         0.4000
     50 H11        -1.3401    2.7636   -7.2716 H         1 <0>         0.1382
     51 H12         0.5374   -1.0655   -6.8296 H         1 <0>         0.1358
     52 H13        -2.0727    0.3934   -3.7765 H         1 <0>         0.1256
     53 H14         0.0528   -2.3212   -4.8296 H         1 <0>         0.4042
     54 H15        -0.9769   -1.7498   -3.6314 H         1 <0>         0.4020
     55 H16         2.2757    0.6953   -7.6908 H         1 <0>         0.1722
     56 H17        -2.3153    1.0522  -10.4241 H         1 <0>         0.1261
     57 H18        -2.2180    0.9075   -8.6527 H         1 <0>         0.1265
     58 H19        -4.2173    2.5949   -9.2992 H         1 <0>         0.4012
     59 H20        -3.4258    5.0923   -8.2443 H         1 <0>         0.0977
     60 H21        -3.5232    5.2371  -10.0157 H         1 <0>         0.0876
     61 H22        -5.6433    4.9927  -11.1683 H         1 <0>         0.1509
     62 H23        -8.0895    5.2080  -11.0270 H         1 <0>         0.1397
     63 H24        -7.8532    4.8787   -6.7585 H         1 <0>         0.1385
     64 H25        -5.4090    4.6558   -6.9218 H         1 <0>         0.1548
     65 H26        -9.6755    5.0489   -6.7959 H         1 <0>         0.4442
     66 H27        -9.8951    5.3558  -10.7642 H         1 <0>         0.4446
     67 H28       -11.2954    5.4183   -9.8381 H         1 <0>         0.4338
     68 H29         1.8782    1.7186  -12.8538 H         1 <0>         0.4156
     69 H30         4.1346    0.6023  -11.3740 H         1 <0>         0.0950
     70 H31         3.9513    1.7415  -14.1999 H         1 <0>         0.0616
     71 H32         5.3451    0.8663  -13.5220 H         1 <0>         0.0776
     72 H33         3.7957    0.0235  -13.7613 H         1 <0>         0.0625
     73 H34         4.1677    2.9880  -10.6989 H         1 <0>         0.0622
     74 H35         5.5623    2.5975  -11.7336 H         1 <0>         0.0682
     75 H36         4.1685    3.4727  -12.4116 H         1 <0>         0.0550
     76 H37       -11.1684    5.2407   -7.5423 H         1 <0>         0.4338
@<TRIPOS>BOND
     1    1    2 1
     2    1   41 1
     3    1   42 1
     4    1   43 1
     5    2    3 1
     6    2   44 1
     7    2   45 1
     8    3    4 1
     9    3    5 1
    10    3    6 1
    11    5   46 1
    12    5   47 1
    13    5   48 1
    14    6    7 am
    15    6   49 1
    16    7    8 2
    17    7    9 1
    18    9   14 ar
    19    9   10 ar
    20   10   11 ar
    21   10   50 1
    22   11   12 ar
    23   11   16 1
    24   12   13 ar
    25   12   51 1
    26   13   14 ar
    27   13   15 1
    28   14   52 1
    29   15   53 1
    30   15   54 1
    31   16   22 1
    32   16   17 2
    33   17   18 1
    34   17   55 1
    35   18   19 2
    36   19   20 1
    37   19   37 1
    38   20   21 2
    39   20   22 am
    40   22   23 1
    41   23   24 1
    42   23   56 1
    43   23   57 1
    44   24   25 2
    45   24   26 am
    46   26   27 1
    47   26   58 1
    48   27   28 1
    49   27   59 1
    50   27   60 1
    51   28   33 ar
    52   28   29 ar
    53   29   30 ar
    54   29   61 1
    55   30   31 ar
    56   30   62 1
    57   31   32 ar
    58   31   34 1
    59   32   33 ar
    60   32   63 1
    61   33   64 1
    62   34   35 2
    63   34   36 1
    64   35   65 1
    65   35   76 1
    66   36   66 1
    67   36   67 1
    68   37   38 1
    69   37   68 1
    70   38   39 1
    71   38   40 1
    72   38   69 1
    73   39   70 1
    74   39   71 1
    75   39   72 1
    76   40   73 1
    77   40   74 1
    78   40   75 1
@<TRIPOS>MOLECULE
CHEMBL541262
   48    51     0     0     0
SMALL
USER_CHARGES

@<TRIPOS>ATOM
      1 C1         -0.0170    1.4035    0.0098 C.ar      1 <0>        -0.1031
      2 C2          1.1390    2.1139    0.0025 C.ar      1 <0>        -0.0854
      3 C3          2.3779    1.4448   -0.0129 C.ar      1 <0>        -0.0667
      4 C4          3.5827    2.1619   -0.0200 C.ar      1 <0>        -0.0122
      5 C5          4.7856    1.4755   -0.0348 C.ar      1 <0>        -0.1514
      6 C6          4.8059    0.0694   -0.0427 C.ar      1 <0>        -0.0904
      7 C7          3.6507   -0.6426   -0.0365 C.ar      1 <0>        -0.0803
      8 C8          2.4110    0.0258   -0.0209 C.ar      1 <0>        -0.0096
      9 C9          1.2073   -0.6917   -0.0137 C.ar      1 <0>        -0.1009
     10 C10         0.0021   -0.0041    0.0020 C.ar      1 <0>        -0.0203
     11 C11        -1.2663   -0.7523    0.0102 C.2       1 <0>        -0.1020
     12 C12        -2.4359   -0.0916    0.0250 C.2       1 <0>        -0.1027
     13 C13        -3.7051   -0.8403    0.0331 C.ar      1 <0>        -0.0306
     14 C14        -3.6983   -2.2381    0.0314 C.ar      1 <0>        -0.1022
     15 C15        -4.8906   -2.9265    0.0380 C.ar      1 <0>        -0.0869
     16 C16        -6.1005   -2.2443    0.0473 C.ar      1 <0>        -0.1345
     17 C17        -6.1136   -0.8637    0.0518 C.ar      1 <0>        -0.0850
     18 C18        -4.9232   -0.1594    0.0485 C.ar      1 <0>        -0.0940
     19 C19        -7.4078   -0.0903    0.0703 C.3       1 <0>        -0.1089
     20 C20        -8.5651   -1.0080   -0.3256 C.3       1 <0>        -0.0042
     21 N1         -8.5020   -2.2244    0.4990 N.4       1 <0>        -0.5049
     22 C21        -7.3754   -3.0470    0.0501 C.3       1 <0>         0.0452
     23 C22         6.0587    2.2272   -0.0428 C.cat     1 <0>         0.5986
     24 N2          7.2187    1.5725   -0.0571 N.pl3     1 <0>        -0.7592
     25 N3          6.0457    3.5592   -0.0358 N.pl3     1 <0>        -0.7638
     26 H1         -0.9631    1.9241    0.0261 H         1 <0>         0.1381
     27 H2          1.1088    3.1935    0.0083 H         1 <0>         0.1422
     28 H3          3.5728    3.2419   -0.0143 H         1 <0>         0.1430
     29 H4          5.7526   -0.4502   -0.0543 H         1 <0>         0.1373
     30 H5          3.6818   -1.7222   -0.0430 H         1 <0>         0.1506
     31 H6          1.2175   -1.7716   -0.0200 H         1 <0>         0.1446
     32 H7         -1.2562   -1.8323    0.0043 H         1 <0>         0.1329
     33 H8         -2.4460    0.9883    0.0308 H         1 <0>         0.1324
     34 H9         -2.7617   -2.7758    0.0245 H         1 <0>         0.1385
     35 H10        -4.8851   -4.0065    0.0356 H         1 <0>         0.1385
     36 H11        -4.9365    0.9205    0.0540 H         1 <0>         0.1377
     37 H12        -7.5820    0.3006    1.0728 H         1 <0>         0.1060
     38 H13        -7.3448    0.7384   -0.6349 H         1 <0>         0.1242
     39 H14        -9.5125   -0.4975   -0.1530 H         1 <0>         0.1422
     40 H15        -8.4767   -1.2748   -1.3788 H         1 <0>         0.1350
     41 H16        -8.3700   -1.9700    1.4664 H         1 <0>         0.4320
     42 H17        -7.5742   -3.4090   -0.9587 H         1 <0>         0.1415
     43 H18        -7.2624   -3.8986    0.7210 H         1 <0>         0.1427
     44 H19         7.2281    0.6026   -0.0622 H         1 <0>         0.4449
     45 H20         5.2010    4.0360   -0.0255 H         1 <0>         0.4428
     46 H21         6.8810    4.0524   -0.0411 H         1 <0>         0.4351
     47 H22         8.0539    2.0657   -0.0624 H         1 <0>         0.4346
     48 H23        -9.3608   -2.7446    0.3995 H         1 <0>         0.4383
@<TRIPOS>BOND
     1    1   10 ar
     2    1    2 ar
     3    1   26 1
     4    2    3 ar
     5    2   27 1
     6    3    8 ar
     7    3    4 ar
     8    4    5 ar
     9    4   28 1
    10    5    6 ar
    11    5   23 1
    12    6    7 ar
    13    6   29 1
    14    7    8 ar
    15    7   30 1
    16    8    9 ar
    17    9   10 ar
    18    9   31 1
    19   10   11 1
    20   11   12 2
    21   11   32 1
    22   12   13 1
    23   12   33 1
    24   13   18 ar
    25   13   14 ar
    26   14   15 ar
    27   14   34 1
    28   15   16 ar
    29   15   35 1
    30   16   22 1
    31   16   17 ar
    32   17   18 ar
    33   17   19 1
    34   18   36 1
    35   19   20 1
    36   19   37 1
    37   19   38 1
    38   20   21 1
    39   20   39 1
    40   20   40 1
    41   21   22 1
    42   21   41 1
    43   21   48 1
    44   22   42 1
    45   22   43 1
    46   23   24 2
    47   23   25 1
    48   24   44 1
    49   24   47 1
    50   25   45 1
    51   25   46 1
@<TRIPOS>MOLECULE
CHEMBL541262__1
   47    50     0     0     0
SMALL
USER_CHARGES

@<TRIPOS>ATOM
      1 C1         -0.0170    1.4035    0.0098 C.ar      1 <0>        -0.1055
      2 C2          1.1390    2.1139    0.0025 C.ar      1 <0>        -0.0861
      3 C3          2.3779    1.4448   -0.0129 C.ar      1 <0>        -0.0749
      4 C4          3.5827    2.1619   -0.0200 C.ar      1 <0>        -0.0072
      5 C5          4.7856    1.4755   -0.0348 C.ar      1 <0>        -0.1618
      6 C6          4.8059    0.0694   -0.0427 C.ar      1 <0>        -0.0927
      7 C7          3.6507   -0.6426   -0.0365 C.ar      1 <0>        -0.0821
      8 C8          2.4110    0.0258   -0.0209 C.ar      1 <0>        -0.0035
      9 C9          1.2073   -0.6917   -0.0137 C.ar      1 <0>        -0.1165
     10 C10         0.0021   -0.0041    0.0020 C.ar      1 <0>         0.0037
     11 C11        -1.2663   -0.7523    0.0102 C.2       1 <0>        -0.1455
     12 C12        -2.4359   -0.0916    0.0250 C.2       1 <0>        -0.0605
     13 C13        -3.7051   -0.8403    0.0331 C.ar      1 <0>        -0.0765
     14 C14        -3.6983   -2.2381    0.0313 C.ar      1 <0>        -0.1050
     15 C15        -4.8909   -2.9258    0.0369 C.ar      1 <0>        -0.1126
     16 C16        -6.1010   -2.2435    0.0456 C.ar      1 <0>        -0.1033
     17 C17        -6.1145   -0.8632    0.0511 C.ar      1 <0>        -0.0794
     18 C18        -4.9230   -0.1595    0.0485 C.ar      1 <0>        -0.0957
     19 C19        -7.4054   -0.0850    0.0722 C.3       1 <0>        -0.1220
     20 C20        -8.5679   -0.9905   -0.3352 C.3       1 <0>         0.0527
     21 N1         -8.5065   -2.2203    0.4706 N.3       1 <0>        -0.6783
     22 C21        -7.3743   -3.0493    0.0458 C.3       1 <0>         0.0899
     23 C22         6.0587    2.2272   -0.0428 C.cat     1 <0>         0.6001
     24 N2          7.2187    1.5725   -0.0571 N.pl3     1 <0>        -0.7624
     25 N3          6.0457    3.5592   -0.0358 N.pl3     1 <0>        -0.7664
     26 H1         -0.9631    1.9241    0.0261 H         1 <0>         0.1388
     27 H2          1.1088    3.1935    0.0083 H         1 <0>         0.1402
     28 H3          3.5728    3.2419   -0.0143 H         1 <0>         0.1406
     29 H4          5.7526   -0.4502   -0.0543 H         1 <0>         0.1343
     30 H5          3.6818   -1.7222   -0.0430 H         1 <0>         0.1489
     31 H6          1.2175   -1.7716   -0.0200 H         1 <0>         0.1435
     32 H7         -1.2562   -1.8323    0.0043 H         1 <0>         0.1321
     33 H8         -2.4460    0.9883    0.0308 H         1 <0>         0.1256
     34 H9         -2.7619   -2.7761    0.0252 H         1 <0>         0.1263
     35 H10        -4.8857   -4.0058    0.0341 H         1 <0>         0.1283
     36 H11        -4.9358    0.9204    0.0538 H         1 <0>         0.1253
     37 H12        -7.5804    0.2983    1.0775 H         1 <0>         0.0803
     38 H13        -7.3359    0.7502   -0.6247 H         1 <0>         0.0832
     39 H14        -9.5126   -0.4788   -0.1510 H         1 <0>         0.0868
     40 H15        -8.4839   -1.2409   -1.3927 H         1 <0>         0.0779
     41 H16        -8.4482   -2.0053    1.4547 H         1 <0>         0.3453
     42 H17        -7.5616   -3.4262   -0.9596 H         1 <0>         0.0911
     43 H18        -7.2675   -3.8905    0.7307 H         1 <0>         0.0903
     44 H19         7.2281    0.6026   -0.0622 H         1 <0>         0.4445
     45 H20         5.2010    4.0360   -0.0255 H         1 <0>         0.4427
     46 H21         6.8810    4.0524   -0.0411 H         1 <0>         0.4331
     47 H22         8.0539    2.0657   -0.0624 H         1 <0>         0.4325
@<TRIPOS>BOND
     1    1   10 ar
     2    1    2 ar
     3    1   26 1
     4    2    3 ar
     5    2   27 1
     6    3    8 ar
     7    3    4 ar
     8    4    5 ar
     9    4   28 1
    10    5    6 ar
    11    5   23 1
    12    6    7 ar
    13    6   29 1
    14    7    8 ar
    15    7   30 1
    16    8    9 ar
    17    9   10 ar
    18    9   31 1
    19   10   11 1
    20   11   12 2
    21   11   32 1
    22   12   13 1
    23   12   33 1
    24   13   18 ar
    25   13   14 ar
    26   14   15 ar
    27   14   34 1
    28   15   16 ar
    29   15   35 1
    30   16   22 1
    31   16   17 ar
    32   17   18 ar
    33   17   19 1
    34   18   36 1
    35   19   20 1
    36   19   37 1
    37   19   38 1
    38   20   21 1
    39   20   39 1
    40   20   40 1
    41   21   22 1
    42   21   41 1
    43   22   42 1
    44   22   43 1
    45   23   24 2
    46   23   25 1
    47   24   44 1
    48   24   47 1
    49   25   45 1
    50   25   46 1
@<TRIPOS>MOLECULE
CHEMBL238913
   70    73     0     0     0
SMALL
USER_CHARGES

@<TRIPOS>ATOM
      1 C1          0.0385   -0.5180    5.4411 C.ar      1 <0>        -0.1029
      2 C2          0.2434   -0.8174    4.1072 C.ar      1 <0>        -0.1207
      3 C3          1.3272   -1.5882    3.7303 C.ar      1 <0>        -0.0922
      4 C4          2.2064   -2.0593    4.6874 C.ar      1 <0>        -0.1052
      5 C5          2.0021   -1.7592    6.0212 C.ar      1 <0>        -0.0934
      6 C6          0.9175   -0.9895    6.3982 C.ar      1 <0>        -0.1222
      7 C7          3.3875   -2.9005    4.2766 C.3       1 <0>         0.1252
      8 O1          4.5064   -2.0526    4.0100 O.3       1 <0>        -0.3500
      9 C8          5.6501   -2.6519    3.6283 C.2       1 <0>         0.6473
     10 O2          5.6968   -3.8616    3.5245 O.2       1 <0>        -0.5587
     11 N1          6.7431   -1.9099    3.3614 N.am      1 <0>        -0.6933
     12 C9          8.0154   -2.5657    3.0496 C.3       1 <0>        -0.4272
     13 C10         9.1421   -1.8935    3.8368 C.3       1 <0>        -0.1192
     14 C11        10.4709   -2.5784    3.5111 C.3       1 <0>        -0.1240
     15 C12        11.5806   -1.9163    4.2864 C.ar      1 <0>        -0.0036
     16 C13        12.2582   -0.8420    3.7379 C.ar      1 <0>        -0.1093
     17 C14        13.2755   -0.2317    4.4424 C.ar      1 <0>        -0.0517
     18 C15        13.6200   -0.6999    5.7107 C.ar      1 <0>        -0.1620
     19 C16        12.9326   -1.7833    6.2585 C.ar      1 <0>        -0.0538
     20 C17        11.9138   -2.3817    5.5459 C.ar      1 <0>        -0.1122
     21 C18        14.7103   -0.0503    6.4716 C.cat     1 <0>         0.6015
     22 N2         15.0369   -0.4993    7.6817 N.pl3     1 <0>        -0.7628
     23 N3         15.3648    0.9832    5.9460 N.pl3     1 <0>        -0.7617
     24 P1          8.3518   -2.4215    1.2638 P.3       1 <0>         2.2980
     25 O3          8.6331   -1.0080    0.9273 O.2       1 <0>        -0.9699
     26 O4          9.6269   -3.3278    0.8829 O.3       1 <0>        -0.6181
     27 C19        10.0029   -3.2334   -0.4196 C.ar      1 <0>         0.0723
     28 C20         9.3940   -4.0304   -1.3781 C.ar      1 <0>        -0.1411
     29 C21         9.7777   -3.9321   -2.7016 C.ar      1 <0>        -0.0979
     30 C22        10.7680   -3.0408   -3.0712 C.ar      1 <0>        -0.1099
     31 C23        11.3766   -2.2457   -2.1177 C.ar      1 <0>        -0.1014
     32 C24        10.9922   -2.3357   -0.7939 C.ar      1 <0>        -0.1104
     33 O5          7.0679   -2.9255    0.4334 O.3       1 <0>        -0.6333
     34 C25         6.2751   -1.9203   -0.0227 C.ar      1 <0>         0.1011
     35 C26         5.1224   -1.5764    0.6685 C.ar      1 <0>        -0.1385
     36 C27         4.3185   -0.5539    0.2030 C.ar      1 <0>        -0.0977
     37 C28         4.6616    0.1262   -0.9508 C.ar      1 <0>        -0.1132
     38 C29         5.8097   -0.2149   -1.6417 C.ar      1 <0>        -0.0936
     39 C30         6.6202   -1.2326   -1.1771 C.ar      1 <0>        -0.1107
     40 H1         -0.8057    0.0880    5.7350 H         1 <0>         0.1277
     41 H2         -0.4435   -0.4493    3.3595 H         1 <0>         0.1290
     42 H3          1.4869   -1.8227    2.6883 H         1 <0>         0.1258
     43 H4          2.6888   -2.1275    6.7689 H         1 <0>         0.1229
     44 H5          0.7576   -0.7554    7.4403 H         1 <0>         0.1274
     45 H6          3.6388   -3.5915    5.0813 H         1 <0>         0.0807
     46 H7          3.1368   -3.4646    3.3783 H         1 <0>         0.0830
     47 H8          6.6873   -0.9416    3.3758 H         1 <0>         0.4213
     48 H9          7.9583   -3.6189    3.3247 H         1 <0>         0.1340
     49 H10         9.1993   -0.8403    3.5617 H         1 <0>         0.1010
     50 H11         8.9410   -1.9797    4.9046 H         1 <0>         0.0916
     51 H12        10.4138   -3.6316    3.7862 H         1 <0>         0.0985
     52 H13        10.6720   -2.4922    2.4433 H         1 <0>         0.1000
     53 H14        11.9905   -0.4805    2.7560 H         1 <0>         0.1551
     54 H15        13.8041    0.6064    4.0129 H         1 <0>         0.1413
     55 H16        13.1949   -2.1505    7.2397 H         1 <0>         0.1388
     56 H17        11.3782   -3.2179    5.9705 H         1 <0>         0.1477
     57 H18        15.7516   -0.0735    8.1805 H         1 <0>         0.4336
     58 H19        15.1269    1.3104    5.0644 H         1 <0>         0.4447
     59 H20        16.0796    1.4091    6.4447 H         1 <0>         0.4337
     60 H21         8.6210   -4.7273   -1.0898 H         1 <0>         0.1370
     61 H22         9.3040   -4.5524   -3.4481 H         1 <0>         0.1382
     62 H23        11.0668   -2.9657   -4.1063 H         1 <0>         0.1352
     63 H24        12.1501   -1.5504   -2.4089 H         1 <0>         0.1374
     64 H25        11.4648   -1.7113   -0.0502 H         1 <0>         0.1361
     65 H26         4.8536   -2.1078    1.5694 H         1 <0>         0.1182
     66 H27         3.4211   -0.2858    0.7407 H         1 <0>         0.1329
     67 H28         4.0316    0.9250   -1.3133 H         1 <0>         0.1331
     68 H29         6.0753    0.3176   -2.5430 H         1 <0>         0.1362
     69 H30         7.5191   -1.4957   -1.7147 H         1 <0>         0.1304
     70 H31        14.5601   -1.2523    8.0646 H         1 <0>         0.4439
@<TRIPOS>BOND
     1    1    6 ar
     2    1    2 ar
     3    1   40 1
     4    2    3 ar
     5    2   41 1
     6    3    4 ar
     7    3   42 1
     8    4    5 ar
     9    4    7 1
    10    5    6 ar
    11    5   43 1
    12    6   44 1
    13    7    8 1
    14    7   45 1
    15    7   46 1
    16    8    9 1
    17    9   10 2
    18    9   11 am
    19   11   12 1
    20   11   47 1
    21   12   13 1
    22   12   24 1
    23   12   48 1
    24   13   14 1
    25   13   49 1
    26   13   50 1
    27   14   15 1
    28   14   51 1
    29   14   52 1
    30   15   20 ar
    31   15   16 ar
    32   16   17 ar
    33   16   53 1
    34   17   18 ar
    35   17   54 1
    36   18   19 ar
    37   18   21 1
    38   19   20 ar
    39   19   55 1
    40   20   56 1
    41   21   22 2
    42   21   23 1
    43   22   57 1
    44   22   70 1
    45   23   58 1
    46   23   59 1
    47   24   25 2
    48   24   26 1
    49   24   33 1
    50   26   27 1
    51   27   32 ar
    52   27   28 ar
    53   28   29 ar
    54   28   60 1
    55   29   30 ar
    56   29   61 1
    57   30   31 ar
    58   30   62 1
    59   31   32 ar
    60   31   63 1
    61   32   64 1
    62   33   34 1
    63   34   39 ar
    64   34   35 ar
    65   35   36 ar
    66   35   65 1
    67   36   37 ar
    68   36   66 1
    69   37   38 ar
    70   37   67 1
    71   38   39 ar
    72   38   68 1
    73   39   69 1
@<TRIPOS>MOLECULE
CHEMBL238913__1
   70    73     0     0     0
SMALL
USER_CHARGES

@<TRIPOS>ATOM
      1 C1          2.7530    0.6520   -3.4927 C.ar      1 <0>        -0.1027
      2 C2          3.9217    1.2877   -3.1172 C.ar      1 <0>        -0.1220
      3 C3          4.9302    0.5719   -2.4998 C.ar      1 <0>        -0.0932
      4 C4          4.7699   -0.7796   -2.2573 C.ar      1 <0>        -0.1053
      5 C5          3.6008   -1.4151   -2.6320 C.ar      1 <0>        -0.0925
      6 C6          2.5929   -0.6995   -3.2508 C.ar      1 <0>        -0.1206
      7 C7          5.8698   -1.5602   -1.5851 C.3       1 <0>         0.1250
      8 O1          5.6802   -1.5274   -0.1691 O.3       1 <0>        -0.3498
      9 C8          6.5841   -2.1822    0.5839 C.2       1 <0>         0.6476
     10 O2          7.5085   -2.7656    0.0533 O.2       1 <0>        -0.5590
     11 N1          6.4635   -2.1905    1.9263 N.am      1 <0>        -0.6935
     12 C9          7.3821   -2.9914    2.7393 C.3       1 <0>        -0.4281
     13 C10         7.8881   -2.1516    3.9138 C.3       1 <0>        -0.1182
     14 C11         8.8475   -2.9880    4.7629 C.3       1 <0>        -0.1234
     15 C12         9.3459   -2.1609    5.9198 C.ar      1 <0>        -0.0035
     16 C13        10.4923   -1.3994    5.7786 C.ar      1 <0>        -0.1122
     17 C14        10.9541   -0.6403    6.8342 C.ar      1 <0>        -0.0539
     18 C15        10.2620   -0.6413    8.0456 C.ar      1 <0>        -0.1621
     19 C16         9.1063   -1.4111    8.1814 C.ar      1 <0>        -0.0518
     20 C17         8.6520   -2.1618    7.1167 C.ar      1 <0>        -0.1090
     21 C18        10.7520    0.1701    9.1819 C.cat     1 <0>         0.6015
     22 N2         10.0893    0.1670   10.3367 N.pl3     1 <0>        -0.7618
     23 N3         11.8554    0.9033    9.0494 N.pl3     1 <0>        -0.7628
     24 P1          6.5087   -4.4602    3.3742 P.3       1 <0>         2.2954
     25 O3          5.5080   -4.0422    4.3812 O.2       1 <0>        -0.9692
     26 O4          5.7658   -5.2101    2.1585 O.3       1 <0>        -0.6348
     27 C19         4.4355   -4.9451    2.0760 C.ar      1 <0>         0.1009
     28 C20         3.5369   -5.6468    2.8665 C.ar      1 <0>        -0.1118
     29 C21         2.1851   -5.3753    2.7812 C.ar      1 <0>        -0.0934
     30 C22         1.7273   -4.4055    1.9085 C.ar      1 <0>        -0.1135
     31 C23         2.6207   -3.7051    1.1193 C.ar      1 <0>        -0.0958
     32 C24         3.9741   -3.9685    1.2053 C.ar      1 <0>        -0.1414
     33 O5          7.5690   -5.4624    4.0551 O.3       1 <0>        -0.6177
     34 C25         7.0042   -6.5544    4.6343 C.ar      1 <0>         0.0685
     35 C26         6.5414   -6.4870    5.9404 C.ar      1 <0>        -0.1128
     36 C27         5.9672   -7.5983    6.5267 C.ar      1 <0>        -0.1022
     37 C28         5.8540   -8.7772    5.8131 C.ar      1 <0>        -0.1092
     38 C29         6.3149   -8.8470    4.5113 C.ar      1 <0>        -0.1006
     39 C30         6.8842   -7.7367    3.9184 C.ar      1 <0>        -0.1329
     40 H1          1.9632    1.2122   -3.9711 H         1 <0>         0.1276
     41 H2          4.0469    2.3436   -3.3066 H         1 <0>         0.1274
     42 H3          5.8436    1.0684   -2.2070 H         1 <0>         0.1231
     43 H4          3.4757   -2.4710   -2.4429 H         1 <0>         0.1259
     44 H5          1.6797   -1.1961   -3.5438 H         1 <0>         0.1290
     45 H6          5.8456   -2.5936   -1.9310 H         1 <0>         0.0830
     46 H7          6.8340   -1.1165   -1.8330 H         1 <0>         0.0811
     47 H8          5.7685   -1.6663    2.3541 H         1 <0>         0.4214
     48 H9          8.2273   -3.3074    2.1277 H         1 <0>         0.1355
     49 H10         8.4104   -1.2734    3.5342 H         1 <0>         0.0917
     50 H11         7.0430   -1.8357    4.5253 H         1 <0>         0.1010
     51 H12         8.3253   -3.8663    5.1425 H         1 <0>         0.0989
     52 H13         9.6927   -3.3040    4.1514 H         1 <0>         0.0986
     53 H14        11.0272   -1.3994    4.8404 H         1 <0>         0.1478
     54 H15        11.8495   -0.0468    6.7230 H         1 <0>         0.1387
     55 H16         8.5664   -1.4163    9.1167 H         1 <0>         0.1412
     56 H17         7.7553   -2.7549    7.2192 H         1 <0>         0.1552
     57 H18        10.4105    0.6990   11.0816 H         1 <0>         0.4336
     58 H19        12.3381    0.9056    8.2081 H         1 <0>         0.4439
     59 H20        12.1766    1.4353    9.7943 H         1 <0>         0.4336
     60 H21         3.8940   -6.4050    3.5478 H         1 <0>         0.1297
     61 H22         1.4853   -5.9213    3.3964 H         1 <0>         0.1360
     62 H23         0.6701   -4.1950    1.8430 H         1 <0>         0.1328
     63 H24         2.2607   -2.9482    0.4381 H         1 <0>         0.1333
     64 H25         4.6720   -3.4181    0.5918 H         1 <0>         0.1215
     65 H26         6.6302   -5.5667    6.4985 H         1 <0>         0.1386
     66 H27         5.6068   -7.5464    7.5435 H         1 <0>         0.1375
     67 H28         5.4052   -9.6450    6.2733 H         1 <0>         0.1350
     68 H29         6.2256   -9.7691    3.9561 H         1 <0>         0.1379
     69 H30         7.2401   -7.7905    2.9002 H         1 <0>         0.1363
     70 H31         9.2854   -0.3671   10.4332 H         1 <0>         0.4447
@<TRIPOS>BOND
     1    1    6 ar
     2    1    2 ar
     3    1   40 1
     4    2    3 ar
     5    2   41 1
     6    3    4 ar
     7    3   42 1
     8    4    5 ar
     9    4    7 1
    10    5    6 ar
    11    5   43 1
    12    6   44 1
    13    7    8 1
    14    7   45 1
    15    7   46 1
    16    8    9 1
    17    9   10 2
    18    9   11 am
    19   11   12 1
    20   11   47 1
    21   12   13 1
    22   12   24 1
    23   12   48 1
    24   13   14 1
    25   13   49 1
    26   13   50 1
    27   14   15 1
    28   14   51 1
    29   14   52 1
    30   15   20 ar
    31   15   16 ar
    32   16   17 ar
    33   16   53 1
    34   17   18 ar
    35   17   54 1
    36   18   19 ar
    37   18   21 1
    38   19   20 ar
    39   19   55 1
    40   20   56 1
    41   21   22 2
    42   21   23 1
    43   22   57 1
    44   22   70 1
    45   23   58 1
    46   23   59 1
    47   24   25 2
    48   24   26 1
    49   24   33 1
    50   26   27 1
    51   27   32 ar
    52   27   28 ar
    53   28   29 ar
    54   28   60 1
    55   29   30 ar
    56   29   61 1
    57   30   31 ar
    58   30   62 1
    59   31   32 ar
    60   31   63 1
    61   32   64 1
    62   33   34 1
    63   34   39 ar
    64   34   35 ar
    65   35   36 ar
    66   35   65 1
    67   36   37 ar
    68   36   66 1
    69   37   38 ar
    70   37   67 1
    71   38   39 ar
    72   38   68 1
    73   39   69 1
@<TRIPOS>MOLECULE
CHEMBL70350
   74    77     0     0     0
SMALL
USER_CHARGES

@<TRIPOS>ATOM
      1 C1         -0.2705    0.7576   -0.0131 C.ar      1 <0>        -0.1269
      2 C2          0.8590    1.5503    0.0688 C.ar      1 <0>        -0.1181
      3 C3          2.1136    0.9701    0.0483 C.ar      1 <0>        -0.1185
      4 C4          2.2386   -0.4028   -0.0534 C.ar      1 <0>        -0.0807
      5 C5          1.1090   -1.1956   -0.1344 C.ar      1 <0>        -0.1191
      6 C6         -0.1455   -0.6153   -0.1154 C.ar      1 <0>        -0.1187
      7 C7          3.6062   -1.0352   -0.0767 C.3       1 <0>        -0.0819
      8 C8          4.0431   -1.3583    1.3536 C.3       1 <0>        -0.1132
      9 C9          5.4317   -2.0004    1.3299 C.3       1 <0>        -0.1195
     10 C10         5.8686   -2.3234    2.7602 C.3       1 <0>        -0.1046
     11 C11         7.2572   -2.9655    2.7366 C.3       1 <0>        -0.1399
     12 C12         7.6875   -3.2836    4.1453 C.2       1 <0>         0.5145
     13 O1          6.9557   -3.0225    5.0766 O.2       1 <0>        -0.5375
     14 N1          8.8856   -3.8583    4.3704 N.am      1 <0>        -0.6133
     15 C13         9.7853   -4.1747    3.2522 C.3       1 <0>         0.0952
     16 C14        11.1409   -3.5050    3.5094 C.3       1 <0>         0.1116
     17 N2         11.5713   -3.8261    4.8774 N.am      1 <0>        -0.5939
     18 C15        10.6717   -3.5097    5.9956 C.3       1 <0>         0.0818
     19 C16         9.3184   -4.1742    5.7389 C.3       1 <0>         0.0929
     20 C17        12.7695   -4.4007    5.1025 C.2       1 <0>         0.7308
     21 O2         13.4414   -4.7911    4.1679 O.2       1 <0>        -0.5673
     22 N3         13.2226   -4.5425    6.3638 N.am      1 <0>        -0.5673
     23 C18        12.6632   -4.2096    7.6676 C.3       1 <0>         0.0442
     24 H1         11.7692   -4.7819    7.9153 H         1 <0>         0.1066
     25 C19        13.9344   -4.7679    8.2950 C.3       1 <0>        -0.1278
     26 H2         14.5445   -4.0192    8.8003 H         1 <0>         0.1334
     27 C20        14.3496   -5.0462    6.8809 C.2       1 <0>         0.5480
     28 O3         15.3396   -5.5434    6.3885 O.2       1 <0>        -0.4882
     29 C21        13.7117   -6.0274    9.1348 C.3       1 <0>        -0.0899
     30 C22        15.0236   -6.4263    9.8135 C.3       1 <0>        -0.1008
     31 C23        16.0466   -6.8355    8.7500 C.3       1 <0>        -0.1597
     32 C24        17.3286   -7.3087    9.4386 C.3       1 <0>        -0.0051
     33 N4         17.0297   -8.4588   10.3001 N.4       1 <0>        -0.5054
     34 C25        16.1043   -8.0556   11.3658 C.3       1 <0>        -0.0051
     35 C26        14.7752   -7.6112   10.7514 C.3       1 <0>        -0.1435
     36 C27        12.4856   -2.7289    7.8842 C.2       1 <0>         0.4937
     37 O4         12.4541   -1.9724    6.9286 O.co2     1 <0>        -0.6560
     38 O5         12.3733   -2.2874    9.0152 O.co2     1 <0>        -0.6675
     39 H3         -1.2507    1.2105    0.0074 H         1 <0>         0.1202
     40 H4          0.7614    2.6229    0.1483 H         1 <0>         0.1211
     41 H5          2.9960    1.5895    0.1116 H         1 <0>         0.1210
     42 H6          1.2067   -2.2682   -0.2143 H         1 <0>         0.1203
     43 H7         -1.0280   -1.2346   -0.1790 H         1 <0>         0.1207
     44 H8          3.5718   -1.9539   -0.6623 H         1 <0>         0.0715
     45 H9          4.3186   -0.3439   -0.5269 H         1 <0>         0.0722
     46 H10         4.0776   -0.4396    1.9392 H         1 <0>         0.0649
     47 H11         3.3308   -2.0496    1.8037 H         1 <0>         0.0640
     48 H12         5.3973   -2.9190    0.7443 H         1 <0>         0.0626
     49 H13         6.1441   -1.3090    0.8798 H         1 <0>         0.0638
     50 H14         5.9030   -1.4047    3.3458 H         1 <0>         0.0709
     51 H15         5.1562   -3.0147    3.2103 H         1 <0>         0.0691
     52 H16         7.2227   -3.8841    2.1509 H         1 <0>         0.0923
     53 H17         7.9695   -2.2741    2.2864 H         1 <0>         0.0945
     54 H18         9.9179   -5.2544    3.1836 H         1 <0>         0.0744
     55 H19         9.3606   -3.7959    2.3226 H         1 <0>         0.0992
     56 H20        11.8755   -3.8807    2.7971 H         1 <0>         0.1047
     57 H21        11.0418   -2.4250    3.4010 H         1 <0>         0.0765
     58 H22        11.0963   -3.8885    6.9252 H         1 <0>         0.1104
     59 H23        10.5391   -2.4299    6.0642 H         1 <0>         0.0970
     60 H24         8.5855   -3.7951    6.4511 H         1 <0>         0.1046
     61 H25         9.4169   -5.2539    5.8514 H         1 <0>         0.0626
     62 H26        12.9555   -5.8287    9.8942 H         1 <0>         0.0960
     63 H27        13.3747   -6.8390    8.4900 H         1 <0>         0.0721
     64 H28        15.4089   -5.5827   10.3862 H         1 <0>         0.0959
     65 H29        15.6385   -7.6450    8.1447 H         1 <0>         0.0869
     66 H30        16.2704   -5.9804    8.1121 H         1 <0>         0.1345
     67 H31        18.0592   -7.6006    8.6842 H         1 <0>         0.1310
     68 H32        17.7360   -6.4984   10.0433 H         1 <0>         0.1293
     69 H33        16.6073   -9.1903    9.7483 H         1 <0>         0.4259
     70 H34        15.9311   -8.8990   12.0343 H         1 <0>         0.1294
     71 H35        16.5378   -7.2295   11.9295 H         1 <0>         0.1300
     72 H36        14.0902   -7.3105   11.5441 H         1 <0>         0.1139
     73 H37        14.3407   -8.4368   10.1877 H         1 <0>         0.0875
     74 H38        17.8852   -8.8015   10.7108 H         1 <0>         0.4268
@<TRIPOS>BOND
     1    1    6 ar
     2    1    2 ar
     3    1   39 1
     4    2    3 ar
     5    2   40 1
     6    3    4 ar
     7    3   41 1
     8    4    5 ar
     9    4    7 1
    10    5    6 ar
    11    5   42 1
    12    6   43 1
    13    7    8 1
    14    7   44 1
    15    7   45 1
    16    8    9 1
    17    8   46 1
    18    8   47 1
    19    9   10 1
    20    9   48 1
    21    9   49 1
    22   10   11 1
    23   10   50 1
    24   10   51 1
    25   11   12 1
    26   11   52 1
    27   11   53 1
    28   12   13 2
    29   12   14 am
    30   14   19 1
    31   14   15 1
    32   15   16 1
    33   15   54 1
    34   15   55 1
    35   16   17 1
    36   16   56 1
    37   16   57 1
    38   17   18 1
    39   17   20 am
    40   18   19 1
    41   18   58 1
    42   18   59 1
    43   19   60 1
    44   19   61 1
    45   20   21 2
    46   20   22 am
    47   22   27 am
    48   22   23 1
    49   23   24 1
    50   23   25 1
    51   23   36 1
    52   25   26 1
    53   25   27 1
    54   25   29 1
    55   27   28 2
    56   29   30 1
    57   29   62 1
    58   29   63 1
    59   30   35 1
    60   30   31 1
    61   30   64 1
    62   31   32 1
    63   31   65 1
    64   31   66 1
    65   32   33 1
    66   32   67 1
    67   32   68 1
    68   33   34 1
    69   33   69 1
    70   33   74 1
    71   34   35 1
    72   34   70 1
    73   34   71 1
    74   35   72 1
    75   35   73 1
    76   36   37 2
    77   36   38 1
@<TRIPOS>MOLECULE
CHEMBL565151
   50    53     0     0     0
SMALL
USER_CHARGES

@<TRIPOS>ATOM
      1 C1         -0.0168    1.3890    0.0097 C.ar      1 <0>        -0.1026
      2 C2          1.1409    2.1050    0.0025 C.ar      1 <0>        -0.0872
      3 C3          2.3753    1.4319   -0.0129 C.ar      1 <0>        -0.0692
      4 C4          3.5872    2.1391   -0.0201 C.ar      1 <0>        -0.0118
      5 C5          4.7824    1.4411   -0.0348 C.ar      1 <0>        -0.1520
      6 C6          4.7882    0.0351   -0.0430 C.ar      1 <0>        -0.0911
      7 C7          3.6260   -0.6660   -0.0362 C.ar      1 <0>        -0.0815
      8 C8          2.3942    0.0138   -0.0207 C.ar      1 <0>        -0.0087
      9 C9          1.1785   -0.6896   -0.0128 C.ar      1 <0>        -0.1128
     10 C10         0.0021   -0.0041    0.0020 C.ar      1 <0>        -0.0445
     11 C11        -1.2994   -0.7638    0.0108 C.3       1 <0>        -0.0837
     12 C12        -1.7541   -1.0132   -1.4286 C.3       1 <0>        -0.0832
     13 C13        -3.0555   -1.7730   -1.4197 C.ar      1 <0>        -0.0551
     14 C14        -3.0509   -3.1556   -1.4215 C.ar      1 <0>        -0.1040
     15 C15        -4.2452   -3.8475   -1.4150 C.ar      1 <0>        -0.0872
     16 C16        -5.4516   -3.1632   -1.4062 C.ar      1 <0>        -0.1385
     17 C17        -5.4551   -1.7845   -1.4017 C.ar      1 <0>        -0.0852
     18 C18        -4.2554   -1.0902   -1.4042 C.ar      1 <0>        -0.1037
     19 C19        -6.7434   -1.0021   -1.3839 C.3       1 <0>        -0.1085
     20 C20        -7.9069   -1.9117   -1.7807 C.3       1 <0>        -0.0041
     21 N1         -7.8528   -3.1289   -0.9566 N.4       1 <0>        -0.5048
     22 C21        -6.7304   -3.9585   -1.4040 C.3       1 <0>         0.0458
     23 C22         6.0635    2.1802   -0.0425 C.cat     1 <0>         0.5986
     24 N2          7.2166    1.5139   -0.0566 N.pl3     1 <0>        -0.7594
     25 N3          6.0641    3.5119   -0.0352 N.pl3     1 <0>        -0.7636
     26 H1         -0.9636    1.9083    0.0260 H         1 <0>         0.1359
     27 H2          1.1113    3.1846    0.0081 H         1 <0>         0.1409
     28 H3          3.5875    3.2191   -0.0145 H         1 <0>         0.1426
     29 H4          5.7297   -0.4939   -0.0552 H         1 <0>         0.1365
     30 H5          3.6467   -1.7457   -0.0426 H         1 <0>         0.1492
     31 H6          1.1768   -1.7696   -0.0189 H         1 <0>         0.1401
     32 H7         -1.1594   -1.7184    0.5182 H         1 <0>         0.0835
     33 H8         -2.0567   -0.1812    0.5353 H         1 <0>         0.0829
     34 H9         -1.8940   -0.0587   -1.9359 H         1 <0>         0.0829
     35 H10        -0.9968   -1.5959   -1.9531 H         1 <0>         0.0837
     36 H11        -2.1143   -3.6933   -1.4283 H         1 <0>         0.1359
     37 H12        -4.2402   -4.9275   -1.4171 H         1 <0>         0.1365
     38 H13        -4.2593   -0.0102   -1.3983 H         1 <0>         0.1340
     39 H14        -6.9155   -0.6099   -0.3816 H         1 <0>         0.1048
     40 H15        -6.6742   -0.1738   -2.0891 H         1 <0>         0.1232
     41 H16        -8.8509   -1.3947   -1.6082 H         1 <0>         0.1416
     42 H17        -7.8200   -2.1787   -2.8339 H         1 <0>         0.1347
     43 H18        -7.7209   -2.8759    0.0112 H         1 <0>         0.4316
     44 H19        -6.9305   -4.3201   -2.4126 H         1 <0>         0.1405
     45 H20        -6.6228   -4.8101   -0.7323 H         1 <0>         0.1419
     46 H21         7.2162    0.5439   -0.0619 H         1 <0>         0.4448
     47 H22         5.2243    3.9973   -0.0249 H         1 <0>         0.4428
     48 H23         6.9043    3.9966   -0.0402 H         1 <0>         0.4350
     49 H24         8.0568    1.9986   -0.0617 H         1 <0>         0.4345
     50 H25        -8.7147   -3.6438   -1.0579 H         1 <0>         0.4380
@<TRIPOS>BOND
     1    1   10 ar
     2    1    2 ar
     3    1   26 1
     4    2    3 ar
     5    2   27 1
     6    3    8 ar
     7    3    4 ar
     8    4    5 ar
     9    4   28 1
    10    5    6 ar
    11    5   23 1
    12    6    7 ar
    13    6   29 1
    14    7    8 ar
    15    7   30 1
    16    8    9 ar
    17    9   10 ar
    18    9   31 1
    19   10   11 1
    20   11   12 1
    21   11   32 1
    22   11   33 1
    23   12   13 1
    24   12   34 1
    25   12   35 1
    26   13   18 ar
    27   13   14 ar
    28   14   15 ar
    29   14   36 1
    30   15   16 ar
    31   15   37 1
    32   16   22 1
    33   16   17 ar
    34   17   18 ar
    35   17   19 1
    36   18   38 1
    37   19   20 1
    38   19   39 1
    39   19   40 1
    40   20   21 1
    41   20   41 1
    42   20   42 1
    43   21   22 1
    44   21   43 1
    45   21   50 1
    46   22   44 1
    47   22   45 1
    48   23   24 2
    49   23   25 1
    50   24   46 1
    51   24   49 1
    52   25   47 1
    53   25   48 1
@<TRIPOS>MOLECULE
CHEMBL565151__1
   49    52     0     0     0
SMALL
USER_CHARGES

@<TRIPOS>ATOM
      1 C1         -0.0168    1.3890    0.0097 C.ar      1 <0>        -0.0990
      2 C2          1.1409    2.1050    0.0025 C.ar      1 <0>        -0.0907
      3 C3          2.3753    1.4319   -0.0129 C.ar      1 <0>        -0.0719
      4 C4          3.5872    2.1391   -0.0201 C.ar      1 <0>        -0.0092
      5 C5          4.7824    1.4411   -0.0348 C.ar      1 <0>        -0.1584
      6 C6          4.7882    0.0351   -0.0430 C.ar      1 <0>        -0.0945
      7 C7          3.6260   -0.6660   -0.0362 C.ar      1 <0>        -0.0802
      8 C8          2.3942    0.0138   -0.0207 C.ar      1 <0>        -0.0068
      9 C9          1.1785   -0.6896   -0.0128 C.ar      1 <0>        -0.1169
     10 C10         0.0021   -0.0041    0.0020 C.ar      1 <0>        -0.0339
     11 C11        -1.2994   -0.7638    0.0108 C.3       1 <0>        -0.0877
     12 C12        -1.7541   -1.0132   -1.4286 C.3       1 <0>        -0.0707
     13 C13        -3.0555   -1.7730   -1.4197 C.ar      1 <0>        -0.0884
     14 C14        -3.0509   -3.1556   -1.4214 C.ar      1 <0>        -0.1170
     15 C15        -4.2454   -3.8469   -1.4150 C.ar      1 <0>        -0.1090
     16 C16        -5.4521   -3.1623   -1.4054 C.ar      1 <0>        -0.1164
     17 C17        -5.4560   -1.7840   -1.4001 C.ar      1 <0>        -0.0754
     18 C18        -4.2552   -1.0904   -1.4042 C.ar      1 <0>        -0.1135
     19 C19        -6.7410   -0.9967   -1.3781 C.3       1 <0>        -0.1214
     20 C20        -7.9101   -1.8942   -1.7847 C.3       1 <0>         0.0529
     21 N1         -7.8567   -3.1248   -0.9795 N.3       1 <0>        -0.6785
     22 C21        -6.7293   -3.9607   -1.4041 C.3       1 <0>         0.0915
     23 C22         6.0635    2.1802   -0.0425 C.cat     1 <0>         0.6001
     24 N2          7.2166    1.5139   -0.0566 N.pl3     1 <0>        -0.7618
     25 N3          6.0641    3.5119   -0.0352 N.pl3     1 <0>        -0.7656
     26 H1         -0.9636    1.9083    0.0260 H         1 <0>         0.1376
     27 H2          1.1113    3.1846    0.0081 H         1 <0>         0.1398
     28 H3          3.5875    3.2191   -0.0145 H         1 <0>         0.1409
     29 H4          5.7297   -0.4939   -0.0552 H         1 <0>         0.1343
     30 H5          3.6467   -1.7457   -0.0426 H         1 <0>         0.1486
     31 H6          1.1768   -1.7696   -0.0189 H         1 <0>         0.1410
     32 H7         -1.1594   -1.7184    0.5182 H         1 <0>         0.0835
     33 H8         -2.0567   -0.1812    0.5353 H         1 <0>         0.0834
     34 H9         -1.8940   -0.0587   -1.9359 H         1 <0>         0.0749
     35 H10        -0.9968   -1.5959   -1.9531 H         1 <0>         0.0753
     36 H11        -2.1145   -3.6935   -1.4282 H         1 <0>         0.1213
     37 H12        -4.2408   -4.9269   -1.4177 H         1 <0>         0.1247
     38 H13        -4.2587   -0.0104   -1.3993 H         1 <0>         0.1199
     39 H14        -6.9126   -0.6122   -0.3727 H         1 <0>         0.0785
     40 H15        -6.6659   -0.1621   -2.0752 H         1 <0>         0.0816
     41 H16        -8.8511   -1.3760   -1.5996 H         1 <0>         0.0855
     42 H17        -7.8287   -2.1448   -2.8424 H         1 <0>         0.0772
     43 H18        -7.7976   -2.9106    0.0047 H         1 <0>         0.3443
     44 H19        -6.9191   -4.3384   -2.4088 H         1 <0>         0.0885
     45 H20        -6.6272   -4.8027   -0.7194 H         1 <0>         0.0880
     46 H21         8.0568    1.9986   -0.0617 H         1 <0>         0.4328
     47 H22         5.2243    3.9973   -0.0249 H         1 <0>         0.4429
     48 H23         6.9043    3.9966   -0.0402 H         1 <0>         0.4334
     49 H24         7.2162    0.5439   -0.0619 H         1 <0>         0.4446
@<TRIPOS>BOND
     1    1   10 ar
     2    1    2 ar
     3    1   26 1
     4    2    3 ar
     5    2   27 1
     6    3    8 ar
     7    3    4 ar
     8    4    5 ar
     9    4   28 1
    10    5    6 ar
    11    5   23 1
    12    6    7 ar
    13    6   29 1
    14    7    8 ar
    15    7   30 1
    16    8    9 ar
    17    9   10 ar
    18    9   31 1
    19   10   11 1
    20   11   12 1
    21   11   32 1
    22   11   33 1
    23   12   13 1
    24   12   34 1
    25   12   35 1
    26   13   18 ar
    27   13   14 ar
    28   14   15 ar
    29   14   36 1
    30   15   16 ar
    31   15   37 1
    32   16   22 1
    33   16   17 ar
    34   17   18 ar
    35   17   19 1
    36   18   38 1
    37   19   20 1
    38   19   39 1
    39   19   40 1
    40   20   21 1
    41   20   41 1
    42   20   42 1
    43   21   22 1
    44   21   43 1
    45   22   44 1
    46   22   45 1
    47   23   24 2
    48   23   25 1
    49   24   46 1
    50   24   49 1
    51   25   47 1
    52   25   48 1
@<TRIPOS>MOLECULE
CHEMBL421214
   59    62     0     0     0
SMALL
USER_CHARGES

@<TRIPOS>ATOM
      1 C1         -2.8287    2.2858    5.4045 C.3       1 <0>        -0.1782
      2 C2         -3.5194    1.0214    4.8896 C.3       1 <0>         0.0730
      3 C3         -5.0305    1.2534    4.8315 C.3       1 <0>        -0.1496
      4 O1         -3.0342    0.7127    3.5814 O.3       1 <0>        -0.3056
      5 C4         -1.8756    0.0067    3.5037 C.ar      1 <0>         0.1528
      6 C5         -1.2964   -0.2435    2.2672 C.ar      1 <0>        -0.1609
      7 C6         -0.1188   -0.9617    2.1866 C.ar      1 <0>        -0.0595
      8 C7          0.4862   -1.4331    3.3358 C.ar      1 <0>        -0.1805
      9 C8         -0.0889   -1.1857    4.5758 C.ar      1 <0>         0.1718
     10 C9         -1.2688   -0.4591    4.6592 C.ar      1 <0>        -0.2123
     11 N1          0.5227   -1.6636    5.7390 N.am      1 <0>        -0.6628
     12 C10        -0.2321   -2.0798    6.7751 C.2       1 <0>         0.5505
     13 O2         -1.4418   -1.9688    6.7290 O.2       1 <0>        -0.4968
     14 C11         0.4110   -2.6713    7.9674 C.ar      1 <0>        -0.0815
     15 C12         1.7902   -2.7900    8.0166 C.ar      1 <0>        -0.0781
     16 C13         2.3953   -3.3517    9.1507 C.ar      1 <0>        -0.0194
     17 C14         3.7943   -3.4857    9.2317 C.ar      1 <0>        -0.0698
     18 C15         4.3614   -4.0315   10.3379 C.ar      1 <0>        -0.0969
     19 C16         3.5682   -4.4687   11.4128 C.ar      1 <0>        -0.1445
     20 C17         2.1901   -4.3511   11.3636 C.ar      1 <0>        -0.0262
     21 C18         1.5842   -3.7892   10.2293 C.ar      1 <0>        -0.0401
     22 C19         0.1856   -3.6543   10.1489 C.ar      1 <0>        -0.0518
     23 C20        -0.3817   -3.1036    9.0450 C.ar      1 <0>        -0.0540
     24 C21        -0.6825   -4.1167   11.2907 C.3       1 <0>        -0.0912
     25 C22        -1.6724   -5.2064   10.8119 C.3       1 <0>        -0.1495
     26 C23        -2.9730   -4.8140   11.5580 C.3       1 <0>         0.0438
     27 O3         -2.9495   -3.3705   11.5396 O.3       1 <0>        -0.3673
     28 C24        -1.5896   -2.9700   11.7773 C.3       1 <0>         0.0517
     29 C25         4.2120   -5.0601   12.6068 C.cat     1 <0>         0.6007
     30 N2          5.3623   -5.7195   12.4851 N.pl3     1 <0>        -0.7554
     31 N3          3.6410   -4.9328   13.8028 N.pl3     1 <0>        -0.7597
     32 H1         -3.0431    3.1164    4.7321 H         1 <0>         0.0696
     33 H2         -3.1987    2.5212    6.4024 H         1 <0>         0.0729
     34 H3         -1.7521    2.1205    5.4459 H         1 <0>         0.0583
     35 H4         -3.3049    0.1907    5.5620 H         1 <0>         0.0789
     36 H5         -5.2450    2.0841    4.1591 H         1 <0>         0.0687
     37 H6         -5.5226    0.3526    4.4646 H         1 <0>         0.0663
     38 H7         -5.4006    1.4888    5.8293 H         1 <0>         0.0784
     39 H8         -1.7671    0.1233    1.3671 H         1 <0>         0.1350
     40 H9          0.3296   -1.1553    1.2232 H         1 <0>         0.1371
     41 H10         1.4064   -1.9945    3.2699 H         1 <0>         0.1272
     42 H11        -1.7155   -0.2612    5.6224 H         1 <0>         0.1485
     43 H12         1.4903   -1.6954    5.8002 H         1 <0>         0.4105
     44 H13         2.3951   -2.4530    7.1878 H         1 <0>         0.1458
     45 H14         4.4167   -3.1546    8.4135 H         1 <0>         0.1530
     46 H15         5.4354   -4.1314   10.3925 H         1 <0>         0.1411
     47 H16         1.5854   -4.6893   12.1921 H         1 <0>         0.1468
     48 H17        -1.4554   -2.9998    8.9926 H         1 <0>         0.1546
     49 H18        -0.0674   -4.4903   12.1094 H         1 <0>         0.0932
     50 H19        -1.8132   -5.1567    9.7322 H         1 <0>         0.0871
     51 H20        -1.3350   -6.1980   11.1135 H         1 <0>         0.0877
     52 H21        -3.8480   -5.1904   11.0280 H         1 <0>         0.1019
     53 H22        -2.9546   -5.1852   12.5827 H         1 <0>         0.0663
     54 H23        -1.4339   -2.8009   12.8428 H         1 <0>         0.0676
     55 H24        -1.3683   -2.0601   11.2194 H         1 <0>         0.0898
     56 H25         5.7783   -5.8123   11.6138 H         1 <0>         0.4474
     57 H26         2.8030   -4.4524   13.8915 H         1 <0>         0.4453
     58 H27         4.0630   -5.3204   14.5855 H         1 <0>         0.4345
     59 H28         5.7843   -6.1071   13.2678 H         1 <0>         0.4341
@<TRIPOS>BOND
     1    1    2 1
     2    1   32 1
     3    1   33 1
     4    1   34 1
     5    2    3 1
     6    2    4 1
     7    2   35 1
     8    3   36 1
     9    3   37 1
    10    3   38 1
    11    4    5 1
    12    5   10 ar
    13    5    6 ar
    14    6    7 ar
    15    6   39 1
    16    7    8 ar
    17    7   40 1
    18    8    9 ar
    19    8   41 1
    20    9   10 ar
    21    9   11 1
    22   10   42 1
    23   11   12 am
    24   11   43 1
    25   12   13 2
    26   12   14 1
    27   14   23 ar
    28   14   15 ar
    29   15   16 ar
    30   15   44 1
    31   16   21 ar
    32   16   17 ar
    33   17   18 ar
    34   17   45 1
    35   18   19 ar
    36   18   46 1
    37   19   20 ar
    38   19   29 1
    39   20   21 ar
    40   20   47 1
    41   21   22 ar
    42   22   23 ar
    43   22   24 1
    44   23   48 1
    45   24   28 1
    46   24   25 1
    47   24   49 1
    48   25   26 1
    49   25   50 1
    50   25   51 1
    51   26   27 1
    52   26   52 1
    53   26   53 1
    54   27   28 1
    55   28   54 1
    56   28   55 1
    57   29   30 2
    58   29   31 1
    59   30   56 1
    60   30   59 1
    61   31   57 1
    62   31   58 1
@<TRIPOS>MOLECULE
CHEMBL421214__1
   59    62     0     0     0
SMALL
USER_CHARGES

@<TRIPOS>ATOM
      1 C1         -2.8343    2.2764    5.3964 C.3       1 <0>        -0.1782
      2 C2         -3.5229    1.0105    4.8824 C.3       1 <0>         0.0732
      3 C3         -5.0344    1.2404    4.8232 C.3       1 <0>        -0.1497
      4 O1         -3.0366    0.7012    3.5749 O.3       1 <0>        -0.3054
      5 C4         -1.8770   -0.0034    3.4986 C.ar      1 <0>         0.1526
      6 C5         -1.2967   -0.2541    2.2627 C.ar      1 <0>        -0.1605
      7 C6         -0.1180   -0.9707    2.1835 C.ar      1 <0>        -0.0593
      8 C7          0.4869   -1.4400    3.3335 C.ar      1 <0>        -0.1801
      9 C8         -0.0892   -1.1921    4.5730 C.ar      1 <0>         0.1714
     10 C9         -1.2701   -0.4670    4.6549 C.ar      1 <0>        -0.2122
     11 N1          0.5225   -1.6678    5.7371 N.am      1 <0>        -0.6624
     12 C10        -0.2324   -2.0840    6.7732 C.2       1 <0>         0.5511
     13 O2         -1.4422   -1.9748    6.7263 O.2       1 <0>        -0.4983
     14 C11         0.4108   -2.6733    7.9665 C.ar      1 <0>        -0.0818
     15 C12         1.7902   -2.7900    8.0165 C.ar      1 <0>        -0.0767
     16 C13         2.3954   -3.3496    9.1517 C.ar      1 <0>        -0.0190
     17 C14         3.7946   -3.4816    9.2336 C.ar      1 <0>        -0.0698
     18 C15         4.3619   -4.0254   10.3407 C.ar      1 <0>        -0.0963
     19 C16         3.5687   -4.4625   11.4156 C.ar      1 <0>        -0.1436
     20 C17         2.1904   -4.3470   11.3655 C.ar      1 <0>        -0.0265
     21 C18         1.5844   -3.7871   10.2302 C.ar      1 <0>        -0.0393
     22 C19         0.1856   -3.6543   10.1489 C.ar      1 <0>        -0.0499
     23 C20        -0.3818   -3.1056    9.0441 C.ar      1 <0>        -0.0552
     24 C21        -0.6825   -4.1167   11.2907 C.3       1 <0>        -0.0916
     25 C22        -1.7236   -3.0283   11.6695 C.3       1 <0>        -0.1521
     26 C23        -2.8653   -3.9019   12.2475 C.3       1 <0>         0.0486
     27 O3         -2.8737   -5.0901   11.4405 O.3       1 <0>        -0.3749
     28 C24        -1.5822   -5.2933   10.8553 C.3       1 <0>         0.0586
     29 C25         4.2126   -5.0517   12.6107 C.cat     1 <0>         0.6006
     30 N2          5.3639   -5.7096   12.4903 N.pl3     1 <0>        -0.7552
     31 N3          3.6407   -4.9240   13.8062 N.pl3     1 <0>        -0.7595
     32 H1         -3.0495    3.1061    4.7230 H         1 <0>         0.0697
     33 H2         -3.2053    2.5124    6.3938 H         1 <0>         0.0725
     34 H3         -1.7575    2.1127    5.4386 H         1 <0>         0.0584
     35 H4         -3.3077    0.1809    5.5558 H         1 <0>         0.0785
     36 H5         -5.2496    2.0700    4.1498 H         1 <0>         0.0689
     37 H6         -5.5250    0.3385    4.4571 H         1 <0>         0.0664
     38 H7         -5.4054    1.4764    5.8206 H         1 <0>         0.0781
     39 H8         -1.7674    0.1111    1.3619 H         1 <0>         0.1351
     40 H9          0.3311   -1.1646    1.2206 H         1 <0>         0.1373
     41 H10         1.4080   -2.0002    3.2688 H         1 <0>         0.1274
     42 H11        -1.7177   -0.2688    5.6177 H         1 <0>         0.1482
     43 H12         1.4900   -1.6983    5.7989 H         1 <0>         0.4107
     44 H13         2.3951   -2.4530    7.1877 H         1 <0>         0.1463
     45 H14         4.4170   -3.1505    8.4154 H         1 <0>         0.1534
     46 H15         5.4359   -4.1237   10.3961 H         1 <0>         0.1414
     47 H16         1.5857   -4.6851   12.1940 H         1 <0>         0.1469
     48 H17        -1.4556   -3.0034    8.9909 H         1 <0>         0.1528
     49 H18        -0.0736   -4.3920   12.1519 H         1 <0>         0.0953
     50 H19        -1.3262   -2.3507   12.4252 H         1 <0>         0.0915
     51 H20        -2.0564   -2.4795   10.7885 H         1 <0>         0.0898
     52 H21        -2.6599   -4.1527   13.2882 H         1 <0>         0.0657
     53 H22        -3.8193   -3.3812   12.1643 H         1 <0>         0.0948
     54 H23        -1.6673   -5.3113    9.7688 H         1 <0>         0.0771
     55 H24        -1.1592   -6.2332   11.2099 H         1 <0>         0.0735
     56 H25         5.7805   -5.8027   11.6193 H         1 <0>         0.4475
     57 H26         2.8020   -4.4447   13.8939 H         1 <0>         0.4452
     58 H27         4.0628   -5.3102   14.5895 H         1 <0>         0.4347
     59 H28         5.7860   -6.0958   13.2736 H         1 <0>         0.4342
@<TRIPOS>BOND
     1    1    2 1
     2    1   32 1
     3    1   33 1
     4    1   34 1
     5    2    3 1
     6    2    4 1
     7    2   35 1
     8    3   36 1
     9    3   37 1
    10    3   38 1
    11    4    5 1
    12    5   10 ar
    13    5    6 ar
    14    6    7 ar
    15    6   39 1
    16    7    8 ar
    17    7   40 1
    18    8    9 ar
    19    8   41 1
    20    9   10 ar
    21    9   11 1
    22   10   42 1
    23   11   12 am
    24   11   43 1
    25   12   13 2
    26   12   14 1
    27   14   23 ar
    28   14   15 ar
    29   15   16 ar
    30   15   44 1
    31   16   21 ar
    32   16   17 ar
    33   17   18 ar
    34   17   45 1
    35   18   19 ar
    36   18   46 1
    37   19   20 ar
    38   19   29 1
    39   20   21 ar
    40   20   47 1
    41   21   22 ar
    42   22   23 ar
    43   22   24 1
    44   23   48 1
    45   24   28 1
    46   24   25 1
    47   24   49 1
    48   25   26 1
    49   25   50 1
    50   25   51 1
    51   26   27 1
    52   26   52 1
    53   26   53 1
    54   27   28 1
    55   28   54 1
    56   28   55 1
    57   29   30 2
    58   29   31 1
    59   30   56 1
    60   30   59 1
    61   31   57 1
    62   31   58 1
@<TRIPOS>MOLECULE
CHEMBL563776
   39    42     0     0     0
SMALL
USER_CHARGES

@<TRIPOS>ATOM
      1 C1         -0.0167    1.3781    0.0096 C.ar      1 <0>        -0.1085
      2 C2          1.1709    2.0855    0.0021 C.ar      1 <0>        -0.1185
      3 C3          2.3773    1.4107   -0.0130 C.ar      1 <0>        -0.1007
      4 C4          2.3960    0.0285   -0.0201 C.ar      1 <0>        -0.0978
      5 C5          1.2084   -0.6789   -0.0117 C.ar      1 <0>        -0.0989
      6 C6          0.0021   -0.0041    0.0020 C.ar      1 <0>        -0.1171
      7 C7          3.7112   -0.7071   -0.0376 C.3       1 <0>         0.0605
      8 C8          4.2320   -1.2045   -1.3875 C.3       1 <0>         0.0229
      9 O1          3.6964   -2.0890   -0.4011 O.3       1 <0>        -0.3267
     10 C9          5.7232   -1.2148   -1.6043 C.ar      1 <0>        -0.0352
     11 C10         6.4716   -2.3091   -1.1745 C.ar      1 <0>        -0.0888
     12 C11         7.8198   -2.3496   -1.3551 C.ar      1 <0>        -0.0906
     13 C12         8.4703   -1.2732   -1.9847 C.ar      1 <0>        -0.0653
     14 C13         9.8587   -1.2829   -2.1872 C.ar      1 <0>        -0.0111
     15 C14        10.4631   -0.2052   -2.8110 C.ar      1 <0>        -0.1539
     16 C15         9.6972    0.8929   -3.2403 C.ar      1 <0>        -0.0951
     17 C16         8.3530    0.9199   -3.0530 C.ar      1 <0>        -0.0762
     18 C17         7.7087   -0.1601   -2.4222 C.ar      1 <0>        -0.0099
     19 C18         6.3181   -0.1575   -2.2219 C.ar      1 <0>        -0.0985
     20 C19        11.9263   -0.2086   -3.0272 C.cat     1 <0>         0.5999
     21 N1         12.5132    0.8257   -3.6268 N.pl3     1 <0>        -0.7610
     22 N2         12.6569   -1.2458   -2.6222 N.pl3     1 <0>        -0.7648
     23 H1         -0.9591    1.9053    0.0259 H         1 <0>         0.1274
     24 H2          1.1563    3.1654    0.0076 H         1 <0>         0.1284
     25 H3          3.3051    1.9634   -0.0196 H         1 <0>         0.1255
     26 H4          1.2231   -1.7588   -0.0176 H         1 <0>         0.1274
     27 H5         -0.9258   -0.5567    0.0082 H         1 <0>         0.1278
     28 H6          4.4434   -0.3845    0.7026 H         1 <0>         0.1379
     29 H7          3.6265   -1.0027   -2.2711 H         1 <0>         0.1460
     30 H8          5.9744   -3.1369   -0.6908 H         1 <0>         0.1423
     31 H9          8.3874   -3.2037   -1.0164 H         1 <0>         0.1425
     32 H10        10.4510   -2.1242   -1.8586 H         1 <0>         0.1421
     33 H11        10.1846    1.7259   -3.7250 H         1 <0>         0.1356
     34 H12         7.7782    1.7706   -3.3880 H         1 <0>         0.1507
     35 H13         5.7240    0.6814   -2.5533 H         1 <0>         0.1468
     36 H14        13.4728    0.8234   -3.7686 H         1 <0>         0.4331
     37 H15        12.2294   -1.9991   -2.1854 H         1 <0>         0.4432
     38 H16        13.6165   -1.2480   -2.7640 H         1 <0>         0.4337
     39 H17        11.9811    1.5811   -3.9218 H         1 <0>         0.4448
@<TRIPOS>BOND
     1    1    6 ar
     2    1    2 ar
     3    1   23 1
     4    2    3 ar
     5    2   24 1
     6    3    4 ar
     7    3   25 1
     8    4    5 ar
     9    4    7 1
    10    5    6 ar
    11    5   26 1
    12    6   27 1
    13    7    9 1
    14    7    8 1
    15    7   28 1
    16    8    9 1
    17    8   10 1
    18    8   29 1
    19   10   19 ar
    20   10   11 ar
    21   11   12 ar
    22   11   30 1
    23   12   13 ar
    24   12   31 1
    25   13   18 ar
    26   13   14 ar
    27   14   15 ar
    28   14   32 1
    29   15   16 ar
    30   15   20 1
    31   16   17 ar
    32   16   33 1
    33   17   18 ar
    34   17   34 1
    35   18   19 ar
    36   19   35 1
    37   20   21 2
    38   20   22 1
    39   21   36 1
    40   21   39 1
    41   22   37 1
    42   22   38 1
@<TRIPOS>MOLECULE
CHEMBL563776__1
   39    42     0     0     0
SMALL
USER_CHARGES

@<TRIPOS>ATOM
      1 C1         -0.0167    1.3781    0.0096 C.ar      1 <0>        -0.1123
      2 C2          1.1709    2.0855    0.0021 C.ar      1 <0>        -0.1180
      3 C3          2.3773    1.4107   -0.0130 C.ar      1 <0>        -0.0990
      4 C4          2.3960    0.0285   -0.0201 C.ar      1 <0>        -0.0893
      5 C5          1.2084   -0.6789   -0.0117 C.ar      1 <0>        -0.0987
      6 C6          0.0021   -0.0041    0.0020 C.ar      1 <0>        -0.1187
      7 C7          3.7112   -0.7071   -0.0376 C.3       1 <0>         0.0541
      8 C8          4.2320   -1.2045   -1.3875 C.3       1 <0>         0.0216
      9 O1          3.6964   -2.0890   -0.4011 O.3       1 <0>        -0.3266
     10 C9          3.3949   -0.9255   -2.6091 C.ar      1 <0>        -0.0278
     11 C10         2.2913   -1.7312   -2.8834 C.ar      1 <0>        -0.0841
     12 C11         1.5149   -1.5059   -3.9782 C.ar      1 <0>        -0.0914
     13 C12         1.8279   -0.4451   -4.8471 C.ar      1 <0>        -0.0642
     14 C13         1.0482   -0.1848   -5.9842 C.ar      1 <0>        -0.0109
     15 C14         1.3876    0.8686   -6.8156 C.ar      1 <0>        -0.1552
     16 C15         2.5032    1.6745   -6.5279 C.ar      1 <0>        -0.0958
     17 C16         3.2690    1.4377   -5.4324 C.ar      1 <0>        -0.0766
     18 C17         2.9505    0.3747   -4.5676 C.ar      1 <0>        -0.0079
     19 C18         3.7249    0.1132   -3.4249 C.ar      1 <0>        -0.0991
     20 C19         0.5704    1.1485   -8.0162 C.cat     1 <0>         0.6000
     21 N1          0.8922    2.1607   -8.8197 N.pl3     1 <0>        -0.7614
     22 N2         -0.4872    0.3882   -8.2939 N.pl3     1 <0>        -0.7653
     23 H1         -0.9591    1.9053    0.0259 H         1 <0>         0.1242
     24 H2          1.1563    3.1654    0.0076 H         1 <0>         0.1266
     25 H3          3.3051    1.9634   -0.0196 H         1 <0>         0.1267
     26 H4          1.2231   -1.7588   -0.0176 H         1 <0>         0.1244
     27 H5         -0.9258   -0.5567    0.0082 H         1 <0>         0.1247
     28 H6          4.4434   -0.3845    0.7026 H         1 <0>         0.1462
     29 H7          5.3106   -1.2120   -1.5443 H         1 <0>         0.1495
     30 H8          2.0489   -2.5463   -2.2178 H         1 <0>         0.1389
     31 H9          0.6630   -2.1386   -4.1790 H         1 <0>         0.1405
     32 H10         0.1906   -0.8014   -6.2092 H         1 <0>         0.1410
     33 H11         2.7544    2.4922   -7.1872 H         1 <0>         0.1349
     34 H12         4.1232    2.0653   -5.2249 H         1 <0>         0.1497
     35 H13         4.5806    0.7314   -3.1965 H         1 <0>         0.1450
     36 H14         0.3563    2.3442   -9.6071 H         1 <0>         0.4329
     37 H15        -0.7216   -0.3491   -7.7087 H         1 <0>         0.4430
     38 H16        -1.0231    0.5717   -9.0813 H         1 <0>         0.4335
     39 H17         1.6625    2.7144   -8.6174 H         1 <0>         0.4447
@<TRIPOS>BOND
     1    1    6 ar
     2    1    2 ar
     3    1   23 1
     4    2    3 ar
     5    2   24 1
     6    3    4 ar
     7    3   25 1
     8    4    5 ar
     9    4    7 1
    10    5    6 ar
    11    5   26 1
    12    6   27 1
    13    7    9 1
    14    7    8 1
    15    7   28 1
    16    8    9 1
    17    8   10 1
    18    8   29 1
    19   10   19 ar
    20   10   11 ar
    21   11   12 ar
    22   11   30 1
    23   12   13 ar
    24   12   31 1
    25   13   18 ar
    26   13   14 ar
    27   14   15 ar
    28   14   32 1
    29   15   16 ar
    30   15   20 1
    31   16   17 ar
    32   16   33 1
    33   17   18 ar
    34   17   34 1
    35   18   19 ar
    36   19   35 1
    37   20   21 2
    38   20   22 1
    39   21   36 1
    40   21   39 1
    41   22   37 1
    42   22   38 1
@<TRIPOS>MOLECULE
CHEMBL563776__2
   39    42     0     0     0
SMALL
USER_CHARGES

@<TRIPOS>ATOM
      1 C1         -0.0167    1.3781    0.0096 C.ar      1 <0>        -0.1123
      2 C2          1.1709    2.0855    0.0021 C.ar      1 <0>        -0.1178
      3 C3          2.3773    1.4107   -0.0130 C.ar      1 <0>        -0.0991
      4 C4          2.3960    0.0285   -0.0201 C.ar      1 <0>        -0.0891
      5 C5          1.2084   -0.6789   -0.0117 C.ar      1 <0>        -0.0987
      6 C6          0.0021   -0.0041    0.0020 C.ar      1 <0>        -0.1190
      7 C7          3.7112   -0.7071   -0.0376 C.3       1 <0>         0.0541
      8 C8          4.2031   -1.3193    1.2755 C.3       1 <0>         0.0213
      9 O1          3.6898   -2.1152    0.2054 O.3       1 <0>        -0.3267
     10 C9          3.3395   -1.1456    2.4982 C.ar      1 <0>        -0.0281
     11 C10         2.3011   -2.0436    2.7381 C.ar      1 <0>        -0.0846
     12 C11         1.5031   -1.9147    3.8329 C.ar      1 <0>        -0.0915
     13 C12         1.7273   -0.8614    4.7376 C.ar      1 <0>        -0.0642
     14 C13         0.9237   -0.6999    5.8764 C.ar      1 <0>        -0.0110
     15 C14         1.1754    0.3490    6.7438 C.ar      1 <0>        -0.1550
     16 C15         2.2263    1.2482    6.4910 C.ar      1 <0>        -0.0958
     17 C16         3.0141    1.1077    5.3945 C.ar      1 <0>        -0.0764
     18 C17         2.7841    0.0519    4.4934 C.ar      1 <0>        -0.0077
     19 C18         3.5892   -0.1172    3.3546 C.ar      1 <0>        -0.0980
     20 C19         0.3320    0.5255    7.9460 C.cat     1 <0>         0.6000
     21 N1          0.5696    1.5328    8.7841 N.pl3     1 <0>        -0.7613
     22 N2         -0.6651   -0.3230    8.1903 N.pl3     1 <0>        -0.7653
     23 H1         -0.9591    1.9053    0.0259 H         1 <0>         0.1241
     24 H2          1.1563    3.1654    0.0076 H         1 <0>         0.1269
     25 H3          3.3051    1.9634   -0.0196 H         1 <0>         0.1271
     26 H4          1.2231   -1.7588   -0.0176 H         1 <0>         0.1241
     27 H5         -0.9258   -0.5567    0.0082 H         1 <0>         0.1242
     28 H6          4.4590   -0.3227   -0.7312 H         1 <0>         0.1459
     29 H7          5.2781   -1.3412    1.4544 H         1 <0>         0.1499
     30 H8          2.1270   -2.8533    2.0449 H         1 <0>         0.1389
     31 H9          0.7015   -2.6175    4.0060 H         1 <0>         0.1407
     32 H10         0.1152   -1.3880    6.0743 H         1 <0>         0.1411
     33 H11         2.4089    2.0614    7.1778 H         1 <0>         0.1349
     34 H12         3.8172    1.8067    5.2136 H         1 <0>         0.1497
     35 H13         4.4005    0.5679    3.1574 H         1 <0>         0.1448
     36 H14         0.0164    1.6486    9.5725 H         1 <0>         0.4330
     37 H15        -0.8381   -1.0567    7.5798 H         1 <0>         0.4430
     38 H16        -1.2182   -0.2072    8.9786 H         1 <0>         0.4335
     39 H17         1.2958    2.1508    8.6061 H         1 <0>         0.4447
@<TRIPOS>BOND
     1    1    6 ar
     2    1    2 ar
     3    1   23 1
     4    2    3 ar
     5    2   24 1
     6    3    4 ar
     7    3   25 1
     8    4    5 ar
     9    4    7 1
    10    5    6 ar
    11    5   26 1
    12    6   27 1
    13    7    9 1
    14    7    8 1
    15    7   28 1
    16    8    9 1
    17    8   10 1
    18    8   29 1
    19   10   19 ar
    20   10   11 ar
    21   11   12 ar
    22   11   30 1
    23   12   13 ar
    24   12   31 1
    25   13   18 ar
    26   13   14 ar
    27   14   15 ar
    28   14   32 1
    29   15   16 ar
    30   15   20 1
    31   16   17 ar
    32   16   33 1
    33   17   18 ar
    34   17   34 1
    35   18   19 ar
    36   19   35 1
    37   20   21 2
    38   20   22 1
    39   21   36 1
    40   21   39 1
    41   22   37 1
    42   22   38 1
@<TRIPOS>MOLECULE
CHEMBL563776__3
   39    42     0     0     0
SMALL
USER_CHARGES

@<TRIPOS>ATOM
      1 C1         -0.0167    1.3781    0.0096 C.ar      1 <0>        -0.1084
      2 C2          1.1709    2.0855    0.0021 C.ar      1 <0>        -0.1183
      3 C3          2.3773    1.4107   -0.0130 C.ar      1 <0>        -0.1004
      4 C4          2.3960    0.0285   -0.0201 C.ar      1 <0>        -0.0976
      5 C5          1.2084   -0.6789   -0.0117 C.ar      1 <0>        -0.0997
      6 C6          0.0021   -0.0041    0.0020 C.ar      1 <0>        -0.1170
      7 C7          3.7112   -0.7071   -0.0376 C.3       1 <0>         0.0610
      8 C8          4.2031   -1.3193    1.2755 C.3       1 <0>         0.0227
      9 O1          3.6898   -2.1152    0.2054 O.3       1 <0>        -0.3265
     10 C9          5.6894   -1.3496    1.5228 C.ar      1 <0>        -0.0349
     11 C10         6.4652   -2.3384    0.9206 C.ar      1 <0>        -0.0899
     12 C11         7.8097   -2.3936    1.1234 C.ar      1 <0>        -0.0902
     13 C12         8.4284   -1.4401    1.9517 C.ar      1 <0>        -0.0656
     14 C13         9.8123   -1.4678    2.1816 C.ar      1 <0>        -0.0110
     15 C14        10.3851   -0.5120    3.0027 C.ar      1 <0>        -0.1540
     16 C15         9.5918    0.4807    3.6043 C.ar      1 <0>        -0.0951
     17 C16         8.2515    0.5233    3.3934 C.ar      1 <0>        -0.0763
     18 C17         7.6389   -0.4339    2.5639 C.ar      1 <0>        -0.0097
     19 C18         6.2545   -0.4072    2.3265 C.ar      1 <0>        -0.0986
     20 C19        11.8433   -0.5356    3.2498 C.cat     1 <0>         0.5999
     21 N1         12.3998    0.3815    4.0390 N.pl3     1 <0>        -0.7610
     22 N2         12.5996   -1.4738    2.6830 N.pl3     1 <0>        -0.7648
     23 H1         -0.9591    1.9053    0.0259 H         1 <0>         0.1274
     24 H2          1.1563    3.1654    0.0076 H         1 <0>         0.1285
     25 H3          3.3051    1.9634   -0.0196 H         1 <0>         0.1256
     26 H4          1.2231   -1.7588   -0.0176 H         1 <0>         0.1276
     27 H5         -0.9258   -0.5567    0.0082 H         1 <0>         0.1278
     28 H6          4.4590   -0.3227   -0.7312 H         1 <0>         0.1380
     29 H7          3.5785   -1.1936    2.1599 H         1 <0>         0.1457
     30 H8          5.9924   -3.0718    0.2841 H         1 <0>         0.1426
     31 H9          8.3986   -3.1659    0.6510 H         1 <0>         0.1424
     32 H10        10.4255   -2.2287    1.7218 H         1 <0>         0.1421
     33 H11        10.0546    1.2188    4.2426 H         1 <0>         0.1356
     34 H12         7.6552    1.2918    3.8628 H         1 <0>         0.1507
     35 H13         5.6406    0.3554    2.7824 H         1 <0>         0.1467
     36 H14        13.3561    0.3661    4.2010 H         1 <0>         0.4331
     37 H15        12.1942   -2.1418    2.1082 H         1 <0>         0.4432
     38 H16        13.5558   -1.4893    2.8450 H         1 <0>         0.4337
     39 H17        11.8489    1.0649    4.4518 H         1 <0>         0.4448
@<TRIPOS>BOND
     1    1    6 ar
     2    1    2 ar
     3    1   23 1
     4    2    3 ar
     5    2   24 1
     6    3    4 ar
     7    3   25 1
     8    4    5 ar
     9    4    7 1
    10    5    6 ar
    11    5   26 1
    12    6   27 1
    13    7    9 1
    14    7    8 1
    15    7   28 1
    16    8    9 1
    17    8   10 1
    18    8   29 1
    19   10   19 ar
    20   10   11 ar
    21   11   12 ar
    22   11   30 1
    23   12   13 ar
    24   12   31 1
    25   13   18 ar
    26   13   14 ar
    27   14   15 ar
    28   14   32 1
    29   15   16 ar
    30   15   20 1
    31   16   17 ar
    32   16   33 1
    33   17   18 ar
    34   17   34 1
    35   18   19 ar
    36   19   35 1
    37   20   21 2
    38   20   22 1
    39   21   36 1
    40   21   39 1
    41   22   37 1
    42   22   38 1
@<TRIPOS>MOLECULE
CHEMBL605842
   56    59     0     0     0
SMALL
USER_CHARGES

@<TRIPOS>ATOM
      1 C1         -0.4691    0.6760    0.3733 C.ar      1 <0>        -0.1055
      2 C2          0.5945    1.5571    0.4304 C.ar      1 <0>        -0.1227
      3 C3          1.8900    1.0837    0.3376 C.ar      1 <0>        -0.0990
      4 C4          2.1218   -0.2708    0.1882 C.ar      1 <0>        -0.1178
      5 C5          1.0583   -1.1520    0.1320 C.ar      1 <0>        -0.0960
      6 C6         -0.2372   -0.6785    0.2234 C.ar      1 <0>        -0.1196
      7 C7          3.5341   -0.7868    0.0861 C.3       1 <0>         0.1795
      8 N1          4.0386   -1.0974    1.4260 N.am      1 <0>        -0.7024
      9 C8          5.2887   -1.5766    1.5810 C.2       1 <0>         0.6468
     10 O1          5.9973   -1.7511    0.6094 O.2       1 <0>        -0.5655
     11 O2          5.7523   -1.8621    2.8124 O.3       1 <0>        -0.3545
     12 C9          7.0863   -2.3666    2.9025 C.3       1 <0>         0.0959
     13 C10         7.4338   -2.6304    4.3690 C.3       1 <0>         0.1319
     14 C11         6.4021   -3.5484    4.9723 C.ar      1 <0>        -0.1334
     15 C12         5.1826   -3.0429    5.3826 C.ar      1 <0>        -0.0752
     16 C13         4.2363   -3.8850    5.9361 C.ar      1 <0>        -0.1229
     17 C14         4.5093   -5.2325    6.0789 C.ar      1 <0>        -0.1035
     18 C15         5.7284   -5.7382    5.6678 C.ar      1 <0>        -0.1172
     19 C16         6.6731   -4.8969    5.1104 C.ar      1 <0>        -0.1065
     20 O3          7.4481   -1.3938    5.0850 O.3       1 <0>        -0.2895
     21 C17         8.2025   -1.3433    6.2129 C.ar      1 <0>         0.2197
     22 C18         8.8145   -2.4835    6.6752 C.ar      1 <0>        -0.2238
     23 C19         9.5932   -2.4712    7.8240 C.ar      1 <0>         0.0067
     24 C20         9.7608   -1.2914    8.5215 C.ar      1 <0>        -0.1283
     25 C21         9.1546   -0.1381    8.0719 C.ar      1 <0>        -0.0381
     26 C22         8.3578   -0.1088    6.9033 C.ar      1 <0>        -0.1618
     27 C23         7.8141    1.1454    6.5754 C.2       1 <0>         0.0376
     28 C24         8.0733    2.2237    7.3608 C.2       1 <0>        -0.2914
     29 S1          9.1075    1.5416    8.6451 S.3       1 <0>         0.1361
     30 C25         7.6088    3.6095    7.1973 C.cat     1 <0>         0.6509
     31 N2          7.9710    4.5434    8.0799 N.pl3     1 <0>        -0.7619
     32 N3          6.8250    3.9336    6.1663 N.pl3     1 <0>        -0.7609
     33 H1         -1.4810    1.0454    0.4502 H         1 <0>         0.1264
     34 H2          0.4134    2.6154    0.5471 H         1 <0>         0.1255
     35 H3          2.7209    1.7722    0.3816 H         1 <0>         0.1230
     36 H4          1.2394   -2.2103    0.0149 H         1 <0>         0.1259
     37 H5         -1.0682   -1.3669    0.1791 H         1 <0>         0.1276
     38 H6          3.5480   -1.6889   -0.5255 H         1 <0>         0.0828
     39 H7          4.1663   -0.0268   -0.3730 H         1 <0>         0.0818
     40 H8          3.4729   -0.9581    2.2016 H         1 <0>         0.4078
     41 H9          7.1621   -3.2961    2.3382 H         1 <0>         0.0992
     42 H10         7.7804   -1.6339    2.4907 H         1 <0>         0.0857
     43 H11         8.4166   -3.0976    4.4311 H         1 <0>         0.1128
     44 H12         4.9694   -1.9901    5.2710 H         1 <0>         0.1248
     45 H13         3.2839   -3.4899    6.2573 H         1 <0>         0.1246
     46 H14         3.7702   -5.8903    6.5120 H         1 <0>         0.1263
     47 H15         5.9418   -6.7909    5.7797 H         1 <0>         0.1285
     48 H16         7.6241   -5.2925    4.7858 H         1 <0>         0.1254
     49 H17         8.6866   -3.4089    6.1332 H         1 <0>         0.1481
     50 H18        10.0649   -3.3790    8.1704 H         1 <0>         0.1542
     51 H19        10.3647   -1.2724    9.4167 H         1 <0>         0.1486
     52 H20         7.1911    1.2520    5.6997 H         1 <0>         0.1510
     53 H21         8.5405    4.3080    8.8289 H         1 <0>         0.4447
     54 H22         6.5618    3.2550    5.5251 H         1 <0>         0.4447
     55 H23         6.5186    4.8476    6.0585 H         1 <0>         0.4363
     56 H24         7.6646    5.4574    7.9720 H         1 <0>         0.4365
@<TRIPOS>BOND
     1    1    6 ar
     2    1    2 ar
     3    1   33 1
     4    2    3 ar
     5    2   34 1
     6    3    4 ar
     7    3   35 1
     8    4    5 ar
     9    4    7 1
    10    5    6 ar
    11    5   36 1
    12    6   37 1
    13    7    8 1
    14    7   38 1
    15    7   39 1
    16    8    9 am
    17    8   40 1
    18    9   10 2
    19    9   11 1
    20   11   12 1
    21   12   13 1
    22   12   41 1
    23   12   42 1
    24   13   14 1
    25   13   20 1
    26   13   43 1
    27   14   19 ar
    28   14   15 ar
    29   15   16 ar
    30   15   44 1
    31   16   17 ar
    32   16   45 1
    33   17   18 ar
    34   17   46 1
    35   18   19 ar
    36   18   47 1
    37   19   48 1
    38   20   21 1
    39   21   26 ar
    40   21   22 ar
    41   22   23 ar
    42   22   49 1
    43   23   24 ar
    44   23   50 1
    45   24   25 ar
    46   24   51 1
    47   25   29 1
    48   25   26 ar
    49   26   27 1
    50   27   28 2
    51   27   52 1
    52   28   29 1
    53   28   30 1
    54   30   31 2
    55   30   32 1
    56   31   53 1
    57   31   56 1
    58   32   54 1
    59   32   55 1
@<TRIPOS>MOLECULE
CHEMBL605842__1
   56    59     0     0     0
SMALL
USER_CHARGES

@<TRIPOS>ATOM
      1 C1         -0.0647    2.4675    1.4394 C.ar      1 <0>        -0.1055
      2 C2          1.1740    3.0778    1.3764 C.ar      1 <0>        -0.1196
      3 C3          2.3055    2.3216    1.1340 C.ar      1 <0>        -0.0960
      4 C4          2.1984    0.9551    0.9550 C.ar      1 <0>        -0.1178
      5 C5          0.9597    0.3447    1.0189 C.ar      1 <0>        -0.0990
      6 C6         -0.1719    1.1011    1.2600 C.ar      1 <0>        -0.1226
      7 C7          3.4318    0.1309    0.6897 C.3       1 <0>         0.1795
      8 N1          3.9961   -0.3270    1.9618 N.am      1 <0>        -0.7024
      9 C8          5.1099   -1.0857    1.9707 C.2       1 <0>         0.6468
     10 O1          5.6461   -1.3900    0.9236 O.2       1 <0>        -0.5657
     11 O2          5.6285   -1.5065    3.1398 O.3       1 <0>        -0.3542
     12 C9          6.8103   -2.3072    3.0745 C.3       1 <0>         0.0961
     13 C10         7.2479   -2.6871    4.4905 C.3       1 <0>         0.1319
     14 C11         7.4132   -1.4380    5.3173 C.ar      1 <0>        -0.1315
     15 C12         6.3198   -0.8803    5.9532 C.ar      1 <0>        -0.0778
     16 C13         6.4715    0.2655    6.7116 C.ar      1 <0>        -0.1218
     17 C14         7.7166    0.8532    6.8344 C.ar      1 <0>        -0.1043
     18 C15         8.8102    0.2950    6.1993 C.ar      1 <0>        -0.1162
     19 C16         8.6593   -0.8532    5.4444 C.ar      1 <0>        -0.1071
     20 O3          6.2559   -3.5252    5.0869 O.3       1 <0>        -0.2896
     21 C17         6.6646   -4.3494    6.0855 C.ar      1 <0>         0.2193
     22 C18         7.9549   -4.2682    6.5512 C.ar      1 <0>        -0.2233
     23 C19         8.4092   -5.0936    7.5704 C.ar      1 <0>         0.0067
     24 C20         7.5512   -6.0178    8.1328 C.ar      1 <0>        -0.1282
     25 C21         6.2534   -6.1127    7.6782 C.ar      1 <0>        -0.0381
     26 C22         5.7517   -5.2864    6.6454 C.ar      1 <0>        -0.1616
     27 C23         4.4064   -5.5029    6.2997 C.2       1 <0>         0.0375
     28 C24         3.6828   -6.4517    6.9501 C.2       1 <0>        -0.2913
     29 S1          4.8616   -7.1285    8.1063 S.3       1 <0>         0.1362
     30 C25         2.2772   -6.8327    6.7455 C.cat     1 <0>         0.6509
     31 N2          1.7326   -7.7991    7.4883 N.pl3     1 <0>        -0.7619
     32 N3          1.5457   -6.2123    5.8169 N.pl3     1 <0>        -0.7609
     33 H1         -0.9482    3.0577    1.6333 H         1 <0>         0.1264
     34 H2          1.2578    4.1454    1.5162 H         1 <0>         0.1276
     35 H3          3.2733    2.7985    1.0840 H         1 <0>         0.1259
     36 H4          0.8760   -0.7229    0.8788 H         1 <0>         0.1230
     37 H5         -1.1397    0.6242    1.3095 H         1 <0>         0.1255
     38 H6          3.1677   -0.7318    0.0780 H         1 <0>         0.0818
     39 H7          4.1682    0.7380    0.1632 H         1 <0>         0.0828
     40 H8          3.5680   -0.0841    2.7977 H         1 <0>         0.4078
     41 H9          6.6050   -3.2121    2.5026 H         1 <0>         0.0857
     42 H10         7.6055   -1.7424    2.5878 H         1 <0>         0.0991
     43 H11         8.1966   -3.2219    4.4465 H         1 <0>         0.1133
     44 H12         5.3470   -1.3395    5.8572 H         1 <0>         0.1236
     45 H13         5.6171    0.7016    7.2078 H         1 <0>         0.1244
     46 H14         7.8350    1.7488    7.4264 H         1 <0>         0.1263
     47 H15         9.7829    0.7544    6.2950 H         1 <0>         0.1285
     48 H16         9.5143   -1.2914    4.9512 H         1 <0>         0.1256
     49 H17         8.6299   -3.5470    6.1147 H         1 <0>         0.1482
     50 H18         9.4275   -5.0138    7.9211 H         1 <0>         0.1542
     51 H19         7.8960   -6.6646    8.9260 H         1 <0>         0.1486
     52 H20         3.9481   -4.9153    5.5180 H         1 <0>         0.1511
     53 H21         2.2641   -8.2500    8.1630 H         1 <0>         0.4447
     54 H22         1.9414   -5.5101    5.2771 H         1 <0>         0.4447
     55 H23         0.6186   -6.4636    5.6819 H         1 <0>         0.4363
     56 H24         0.8055   -8.0505    7.3534 H         1 <0>         0.4365
@<TRIPOS>BOND
     1    1    6 ar
     2    1    2 ar
     3    1   33 1
     4    2    3 ar
     5    2   34 1
     6    3    4 ar
     7    3   35 1
     8    4    5 ar
     9    4    7 1
    10    5    6 ar
    11    5   36 1
    12    6   37 1
    13    7    8 1
    14    7   38 1
    15    7   39 1
    16    8    9 am
    17    8   40 1
    18    9   10 2
    19    9   11 1
    20   11   12 1
    21   12   13 1
    22   12   41 1
    23   12   42 1
    24   13   14 1
    25   13   20 1
    26   13   43 1
    27   14   19 ar
    28   14   15 ar
    29   15   16 ar
    30   15   44 1
    31   16   17 ar
    32   16   45 1
    33   17   18 ar
    34   17   46 1
    35   18   19 ar
    36   18   47 1
    37   19   48 1
    38   20   21 1
    39   21   26 ar
    40   21   22 ar
    41   22   23 ar
    42   22   49 1
    43   23   24 ar
    44   23   50 1
    45   24   25 ar
    46   24   51 1
    47   25   29 1
    48   25   26 ar
    49   26   27 1
    50   27   28 2
    51   27   52 1
    52   28   29 1
    53   28   30 1
    54   30   31 2
    55   30   32 1
    56   31   53 1
    57   31   56 1
    58   32   54 1
    59   32   55 1
@<TRIPOS>MOLECULE
CHEMBL62807
   52    55     0     0     0
SMALL
USER_CHARGES

@<TRIPOS>ATOM
      1 C1         -0.3218    1.6516   -0.0057 C.3       1 <0>        -0.1504
      2 C2         -0.0648    0.1435   -0.0246 C.3       1 <0>        -0.0834
      3 H1         -1.0158   -0.3877    0.0138 H         1 <0>         0.0832
      4 C3          0.6772   -0.2314   -1.3091 C.3       1 <0>        -0.1139
      5 C4          0.9342   -1.7395   -1.3280 C.3       1 <0>        -0.1261
      6 C5          1.7843   -2.1272   -0.1164 C.3       1 <0>        -0.1174
      7 C6          1.0423   -1.7524    1.1681 C.3       1 <0>        -0.1453
      8 C7          0.7853   -0.2443    1.1870 C.3       1 <0>         0.0872
      9 H2          1.7363    0.2869    1.1486 H         1 <0>         0.0759
     10 O1          0.0923    0.1058    2.3867 O.3       1 <0>        -0.2899
     11 C8          0.8459    0.2898    3.5038 C.ar      1 <0>         0.1135
     12 C9          2.2272    0.2108    3.4285 C.ar      1 <0>        -0.1685
     13 C10         3.0004    0.3964    4.5616 C.ar      1 <0>        -0.0831
     14 C11         2.4034    0.6622    5.7758 C.ar      1 <0>        -0.1184
     15 C12         1.0123    0.7448    5.8667 C.ar      1 <0>        -0.0564
     16 C13         0.2307    0.5628    4.7204 C.ar      1 <0>         0.1391
     17 O2         -1.1230    0.6466    4.7970 O.3       1 <0>        -0.4592
     18 C14         0.3692    1.0283    7.1660 C.2       1 <0>         0.3920
     19 N1         -0.9248    1.1212    7.3633 N.2       1 <0>        -0.4604
     20 C15        -1.1714    1.3875    8.6614 C.ar      1 <0>         0.1385
     21 C16        -2.3511    1.5808    9.3918 C.ar      1 <0>        -0.0904
     22 C17        -2.2918    1.8426   10.7295 C.ar      1 <0>         0.1393
     23 C18        -1.0535    1.9202   11.3852 C.ar      1 <0>        -0.1976
     24 C19         0.1291    1.7296   10.6711 C.ar      1 <0>         0.0009
     25 C20         0.0739    1.4644    9.3150 C.ar      1 <0>         0.0240
     26 N2          1.0327    1.2276    8.3454 N.pl3     1 <0>        -0.5855
     27 C21        -1.0026    2.2045   12.8325 C.cat     1 <0>         0.6151
     28 N3         -0.3756    1.3637   13.6554 N.pl3     1 <0>        -0.7534
     29 N4         -1.5837    3.3022   13.3170 N.pl3     1 <0>        -0.7464
     30 F1         -3.4332    2.0289   11.4278 F         1 <0>        -0.1215
     31 H3          0.6292    2.1828   -0.0441 H         1 <0>         0.0529
     32 H4         -0.9274    1.9278   -0.8688 H         1 <0>         0.0610
     33 H5         -0.8504    1.9186    0.9094 H         1 <0>         0.0635
     34 H6          0.0716    0.0449   -2.1723 H         1 <0>         0.0751
     35 H7          1.6282    0.2998   -1.3475 H         1 <0>         0.0658
     36 H8         -0.0168   -2.2707   -1.2896 H         1 <0>         0.0665
     37 H9          1.4628   -2.0065   -2.2431 H         1 <0>         0.0693
     38 H10         1.9674   -3.2016   -0.1299 H         1 <0>         0.0710
     39 H11         2.7353   -1.5960   -0.1549 H         1 <0>         0.0644
     40 H12         0.0913   -2.2836    1.2065 H         1 <0>         0.0767
     41 H13         1.6479   -2.0286    2.0312 H         1 <0>         0.0672
     42 H14         2.7028    0.0030    2.4814 H         1 <0>         0.1442
     43 H15         4.0764    0.3325    4.4944 H         1 <0>         0.1408
     44 H16         3.0117    0.8062    6.6565 H         1 <0>         0.1275
     45 H17        -3.3085    1.5229    8.8954 H         1 <0>         0.1667
     46 H18         1.0828    1.7890   11.1744 H         1 <0>         0.1524
     47 H19        -0.0164    0.5295   13.3149 H         1 <0>         0.4484
     48 H20        -2.0400    3.9140   12.7183 H         1 <0>         0.4495
     49 H21        -1.5503    3.4890   14.2683 H         1 <0>         0.4341
     50 H22        -0.2785    1.5862   14.5945 H         1 <0>         0.4335
     51 H23         1.9936    1.2088    8.4768 H         1 <0>         0.4347
     52 H24        -1.5588   -0.1946    4.9912 H         1 <0>         0.3935
@<TRIPOS>BOND
     1    1    2 1
     2    1   31 1
     3    1   32 1
     4    1   33 1
     5    2    3 1
     6    2    8 1
     7    2    4 1
     8    4    5 1
     9    4   34 1
    10    4   35 1
    11    5    6 1
    12    5   36 1
    13    5   37 1
    14    6    7 1
    15    6   38 1
    16    6   39 1
    17    7    8 1
    18    7   40 1
    19    7   41 1
    20    8    9 1
    21    8   10 1
    22   10   11 1
    23   11   16 ar
    24   11   12 ar
    25   12   13 ar
    26   12   42 1
    27   13   14 ar
    28   13   43 1
    29   14   15 ar
    30   14   44 1
    31   15   16 ar
    32   15   18 1
    33   16   17 1
    34   17   52 1
    35   18   26 1
    36   18   19 2
    37   19   20 1
    38   20   25 ar
    39   20   21 ar
    40   21   22 ar
    41   21   45 1
    42   22   23 ar
    43   22   30 1
    44   23   24 ar
    45   23   27 1
    46   24   25 ar
    47   24   46 1
    48   25   26 1
    49   26   51 1
    50   27   28 2
    51   27   29 1
    52   28   47 1
    53   28   50 1
    54   29   48 1
    55   29   49 1
@<TRIPOS>MOLECULE
CHEMBL62807__1
   52    55     0     0     0
SMALL
USER_CHARGES

@<TRIPOS>ATOM
      1 C1         -0.3335    0.9869    0.0523 C.3       1 <0>        -0.1502
      2 C2         -0.1255   -0.5279    0.1053 C.3       1 <0>        -0.0829
      3 H1         -1.0933   -1.0256    0.1672 H         1 <0>         0.0827
      4 C3          0.6041   -0.9871   -1.1587 C.3       1 <0>        -0.1141
      5 C4          0.8120   -2.5020   -1.1057 C.3       1 <0>        -0.1259
      6 C5          1.6488   -2.8592    0.1243 C.3       1 <0>        -0.1177
      7 C6          0.9192   -2.4000    1.3884 C.3       1 <0>        -0.1460
      8 C7          0.7113   -0.8851    1.3354 C.3       1 <0>         0.0877
      9 H2          1.6791   -0.3875    1.2734 H         1 <0>         0.0757
     10 O1          0.0298   -0.4563    2.5159 O.3       1 <0>        -0.2908
     11 C8          0.7875   -0.2534    3.6270 C.ar      1 <0>         0.1142
     12 C9          2.1607   -0.4307    3.5711 C.ar      1 <0>        -0.1713
     13 C10         2.9379   -0.2255    4.6979 C.ar      1 <0>        -0.0813
     14 C11         2.3529    0.1572    5.8866 C.ar      1 <0>        -0.1208
     15 C12         0.9704    0.3395    5.9576 C.ar      1 <0>        -0.0494
     16 C13         0.1852    0.1373    4.8175 C.ar      1 <0>         0.1336
     17 O2         -1.1603    0.3171    4.8747 O.3       1 <0>        -0.4602
     18 C14         0.3401    0.7491    7.2297 C.2       1 <0>         0.3702
     19 N1          1.0106    0.9839    8.4013 N.pl3     1 <0>        -0.5844
     20 H3          1.9678    0.9120    8.5405 H         1 <0>         0.4364
     21 C15         0.0715    1.3425    9.3459 C.ar      1 <0>         0.1166
     22 C16         0.1473    1.6903   10.6890 C.ar      1 <0>        -0.1252
     23 C17        -0.9987    2.0058   11.3852 C.ar      1 <0>         0.1503
     24 C18        -2.2462    1.9775   10.7438 C.ar      1 <0>        -0.2039
     25 C19        -2.3336    1.6303    9.3998 C.ar      1 <0>         0.0371
     26 C20        -1.1750    1.3112    8.6920 C.ar      1 <0>         0.0429
     27 N2         -0.9431    0.9476    7.4052 N.2       1 <0>        -0.4450
     28 C21        -3.4700    2.3167   11.4980 C.cat     1 <0>         0.6152
     29 N3         -3.5627    3.4888   12.1252 N.pl3     1 <0>        -0.7483
     30 N4         -4.4814    1.4507   11.5512 N.pl3     1 <0>        -0.7498
     31 F1         -0.9211    2.3435   12.6911 F         1 <0>        -0.1195
     32 H4          0.6343    1.4846   -0.0097 H         1 <0>         0.0531
     33 H5         -0.9296    1.2414   -0.8241 H         1 <0>         0.0607
     34 H6         -0.8532    1.3141    0.9528 H         1 <0>         0.0633
     35 H7          0.0079   -0.7326   -2.0351 H         1 <0>         0.0749
     36 H8          1.5719   -0.4895   -1.2207 H         1 <0>         0.0660
     37 H9         -0.1558   -2.9996   -1.0438 H         1 <0>         0.0662
     38 H10         1.3318   -2.8291   -2.0062 H         1 <0>         0.0693
     39 H11         1.7970   -3.9384    0.1621 H         1 <0>         0.0711
     40 H12         2.6166   -2.3615    0.0624 H         1 <0>         0.0646
     41 H13        -0.0486   -2.8976    1.4503 H         1 <0>         0.0763
     42 H14         1.5154   -2.6545    2.2647 H         1 <0>         0.0678
     43 H15         2.6267   -0.7306    2.6441 H         1 <0>         0.1436
     44 H16         4.0074   -0.3661    4.6461 H         1 <0>         0.1407
     45 H17         2.9641    0.3156    6.7628 H         1 <0>         0.1279
     46 H18        -1.6534   -0.4786    5.1171 H         1 <0>         0.3910
     47 H19         1.1052    1.7129   11.1874 H         1 <0>         0.1595
     48 H20        -3.2941    1.6082    8.9065 H         1 <0>         0.1613
     49 H21        -2.8011    4.0890   12.1466 H         1 <0>         0.4486
     50 H22        -4.4139    0.5975   11.0947 H         1 <0>         0.4493
     51 H23        -5.2851    1.6735   12.0465 H         1 <0>         0.4341
     52 H24        -4.3919    3.7418   12.5603 H         1 <0>         0.4345
@<TRIPOS>BOND
     1    1    2 1
     2    1   32 1
     3    1   33 1
     4    1   34 1
     5    2    3 1
     6    2    8 1
     7    2    4 1
     8    4    5 1
     9    4   35 1
    10    4   36 1
    11    5    6 1
    12    5   37 1
    13    5   38 1
    14    6    7 1
    15    6   39 1
    16    6   40 1
    17    7    8 1
    18    7   41 1
    19    7   42 1
    20    8    9 1
    21    8   10 1
    22   10   11 1
    23   11   16 ar
    24   11   12 ar
    25   12   13 ar
    26   12   43 1
    27   13   14 ar
    28   13   44 1
    29   14   15 ar
    30   14   45 1
    31   15   16 ar
    32   15   18 1
    33   16   17 1
    34   17   46 1
    35   18   27 2
    36   18   19 1
    37   19   20 1
    38   19   21 1
    39   21   26 ar
    40   21   22 ar
    41   22   23 ar
    42   22   47 1
    43   23   24 ar
    44   23   31 1
    45   24   25 ar
    46   24   28 1
    47   25   26 ar
    48   25   48 1
    49   26   27 1
    50   28   29 2
    51   28   30 1
    52   29   49 1
    53   29   52 1
    54   30   50 1
    55   30   51 1
@<TRIPOS>MOLECULE
CHEMBL320233
   68    72     0     0     0
SMALL
USER_CHARGES

@<TRIPOS>ATOM
      1 C1         -0.8010    2.1717    1.0697 C.3       1 <0>        -0.1538
      2 C2         -0.6849    0.6478    1.1421 C.3       1 <0>        -0.5954
      3 S1          0.4254    0.0630   -0.1678 S.o2      1 <0>         2.5119
      4 O1         -0.1682    0.2717   -1.4419 O.2       1 <0>        -0.9080
      5 O2          1.7555    0.4912    0.0906 O.2       1 <0>        -0.9128
      6 C3          0.4711   -1.6878    0.0255 C.2       1 <0>        -0.5439
      7 C4         -0.3575   -2.5601   -0.5719 C.2       1 <0>        -0.0695
      8 C5          0.0579   -3.8917   -0.1147 C.2       1 <0>        -0.1750
      9 C6          1.1086   -3.6829    0.7230 C.2       1 <0>         0.0211
     10 O3          1.3428   -2.3646    0.7887 O.3       1 <0>        -0.1154
     11 C7         -0.5429   -5.1932   -0.4883 C.ar      1 <0>         0.0085
     12 C8         -1.9092   -5.3753   -0.4079 C.ar      1 <0>        -0.0420
     13 C9         -2.4860   -6.6044   -0.7598 C.ar      1 <0>        -0.0822
     14 C10        -1.6964   -7.6576   -1.1942 C.ar      1 <0>        -0.0724
     15 C11        -0.3058   -7.4983   -1.2852 C.ar      1 <0>        -0.0157
     16 C12         0.2812   -6.2559   -0.9357 C.ar      1 <0>        -0.0367
     17 C13         1.6688   -6.0974   -1.0315 C.ar      1 <0>        -0.0256
     18 C14         2.4484   -7.1546   -1.4718 C.ar      1 <0>        -0.1382
     19 C15         1.8562   -8.3802   -1.8218 C.ar      1 <0>        -0.0937
     20 C16         0.5135   -8.5563   -1.7244 C.ar      1 <0>        -0.0677
     21 C17         3.9151   -6.9922   -1.5747 C.cat     1 <0>         0.5983
     22 N1          4.6692   -8.0052   -1.9974 N.pl3     1 <0>        -0.7569
     23 N2          4.4814   -5.8329   -1.2448 N.pl3     1 <0>        -0.7623
     24 C18        -3.9513   -6.7786   -0.6659 C.2       1 <0>         0.5518
     25 O4         -4.6495   -5.8592   -0.2853 O.2       1 <0>        -0.4967
     26 N3         -4.5128   -7.9567   -1.0023 N.am      1 <0>        -0.6624
     27 C19        -5.8849   -8.1548   -0.8196 C.ar      1 <0>         0.1701
     28 C20        -6.3614   -9.3977   -0.4209 C.ar      1 <0>        -0.1786
     29 C21        -7.7166   -9.5931   -0.2400 C.ar      1 <0>        -0.0601
     30 C22        -8.6021   -8.5539   -0.4552 C.ar      1 <0>        -0.1597
     31 C23        -8.1321   -7.3106   -0.8538 C.ar      1 <0>         0.1508
     32 C24        -6.7721   -7.1087   -1.0305 C.ar      1 <0>        -0.2089
     33 O5         -9.0041   -6.2900   -1.0655 O.3       1 <0>        -0.3036
     34 C25        -8.4647   -5.0731   -1.5855 C.3       1 <0>         0.0812
     35 C26        -7.9683   -4.1790   -0.4305 C.3       1 <0>        -0.1480
     36 C27        -8.3235   -2.7411   -0.8836 C.3       1 <0>        -0.1233
     37 C28        -9.6948   -2.9306   -1.5782 C.3       1 <0>        -0.1244
     38 C29        -9.5625   -4.2793   -2.3152 C.3       1 <0>        -0.1229
     39 H1          0.1846    2.6179    1.2026 H         1 <0>         0.0786
     40 H2         -1.2021    2.4597    0.0979 H         1 <0>         0.0785
     41 H3         -1.4681    2.5231    1.8568 H         1 <0>         0.0937
     42 H4         -0.2837    0.3598    2.1139 H         1 <0>         0.1417
     43 H5         -1.6704    0.2016    1.0092 H         1 <0>         0.1403
     44 H6         -1.1652   -2.3288   -1.2504 H         1 <0>         0.1797
     45 H7          1.6634   -4.4495    1.2434 H         1 <0>         0.2182
     46 H8         -2.5387   -4.5650   -0.0710 H         1 <0>         0.1547
     47 H9         -2.1513   -8.5998   -1.4619 H         1 <0>         0.1482
     48 H10         2.1284   -5.1573   -0.7643 H         1 <0>         0.1402
     49 H11         2.4777   -9.1947   -2.1637 H         1 <0>         0.1409
     50 H12         0.0723   -9.5041   -1.9954 H         1 <0>         0.1561
     51 H13         4.2567   -8.8496   -2.2377 H         1 <0>         0.4455
     52 H14         3.9321   -5.0950   -0.9369 H         1 <0>         0.4426
     53 H15         5.4432   -5.7264   -1.3123 H         1 <0>         0.4363
     54 H16        -3.9651   -8.6672   -1.3712 H         1 <0>         0.4108
     55 H17        -5.6716  -10.2116   -0.2528 H         1 <0>         0.1275
     56 H18        -8.0851  -10.5598    0.0699 H         1 <0>         0.1372
     57 H19        -9.6614   -8.7098   -0.3132 H         1 <0>         0.1350
     58 H20        -6.4041   -6.1405   -1.3362 H         1 <0>         0.1473
     59 H21        -7.6442   -5.2908   -2.2692 H         1 <0>         0.0734
     60 H22        -8.4886   -4.4270    0.4946 H         1 <0>         0.0785
     61 H23        -6.8908   -4.2836   -0.3030 H         1 <0>         0.0778
     62 H24        -8.4143   -2.0767   -0.0243 H         1 <0>         0.0722
     63 H25        -7.5823   -2.3640   -1.5883 H         1 <0>         0.0686
     64 H26       -10.4940   -2.9769   -0.8385 H         1 <0>         0.0713
     65 H27        -9.8774   -2.1241   -2.2884 H         1 <0>         0.0720
     66 H28        -9.2744   -4.1111   -3.3529 H         1 <0>         0.0776
     67 H29       -10.5067   -4.8223   -2.2728 H         1 <0>         0.0828
     68 H30         5.6309   -7.8987   -2.0649 H         1 <0>         0.4351
@<TRIPOS>BOND
     1    1    2 1
     2    1   39 1
     3    1   40 1
     4    1   41 1
     5    2    3 1
     6    2   42 1
     7    2   43 1
     8    3    4 2
     9    3    5 2
    10    3    6 1
    11    6   10 1
    12    6    7 2
    13    7    8 1
    14    7   44 1
    15    8    9 2
    16    8   11 1
    17    9   10 1
    18    9   45 1
    19   11   16 ar
    20   11   12 ar
    21   12   13 ar
    22   12   46 1
    23   13   14 ar
    24   13   24 1
    25   14   15 ar
    26   14   47 1
    27   15   20 ar
    28   15   16 ar
    29   16   17 ar
    30   17   18 ar
    31   17   48 1
    32   18   19 ar
    33   18   21 1
    34   19   20 ar
    35   19   49 1
    36   20   50 1
    37   21   22 2
    38   21   23 1
    39   22   51 1
    40   22   68 1
    41   23   52 1
    42   23   53 1
    43   24   25 2
    44   24   26 am
    45   26   27 1
    46   26   54 1
    47   27   32 ar
    48   27   28 ar
    49   28   29 ar
    50   28   55 1
    51   29   30 ar
    52   29   56 1
    53   30   31 ar
    54   30   57 1
    55   31   32 ar
    56   31   33 1
    57   32   58 1
    58   33   34 1
    59   34   38 1
    60   34   35 1
    61   34   59 1
    62   35   36 1
    63   35   60 1
    64   35   61 1
    65   36   37 1
    66   36   62 1
    67   36   63 1
    68   37   38 1
    69   37   64 1
    70   37   65 1
    71   38   66 1
    72   38   67 1
@<TRIPOS>MOLECULE
CHEMBL227607
   59    61     0     0     0
SMALL
USER_CHARGES

@<TRIPOS>ATOM
      1 C1         -0.0996    1.2999    0.4096 C.3       1 <0>        -0.0536
      2 N1         -0.1698   -0.1674    0.4121 N.4       1 <0>        -0.3845
      3 C2          0.3097   -0.6783    1.7032 C.3       1 <0>        -0.0463
      4 C3         -1.5607   -0.5915    0.2037 C.3       1 <0>        -0.0476
      5 C4         -2.0196   -0.1667   -1.1927 C.3       1 <0>         0.0928
      6 N2         -3.3604   -0.6985   -1.4490 N.pl3     1 <0>        -0.9514
      7 C5         -4.5390    0.0160   -0.9524 C.3       1 <0>         0.1028
      8 C6         -5.4559    0.4327   -2.1291 C.3       1 <0>        -0.1344
      9 C7         -4.7683    1.7147   -2.6608 C.3       1 <0>        -0.1274
     10 C8         -4.2718    2.4329   -1.3889 C.3       1 <0>        -0.1224
     11 C9         -4.1260    1.3528   -0.3027 C.3       1 <0>        -0.1083
     12 C10        -5.2954   -0.8376    0.0326 C.2       1 <0>         0.4968
     13 O1         -4.8147   -1.8871    0.4250 O.co2     1 <0>        -0.6822
     14 O2         -6.3881   -0.4788    0.4372 O.co2     1 <0>        -0.6633
     15 S1         -3.5437   -2.1073   -2.2999 S.o2      1 <0>         2.6989
     16 O3         -4.9177   -2.1932   -2.6520 O.2       1 <0>        -0.9381
     17 O4         -2.5056   -2.1338   -3.2699 O.2       1 <0>        -0.9761
     18 C11        -3.2254   -3.4343   -1.1853 C.ar      1 <0>        -0.6901
     19 C12        -1.9107   -3.8155   -0.9308 C.ar      1 <0>        -0.0259
     20 C13        -1.6295   -4.8383   -0.0743 C.ar      1 <0>        -0.1568
     21 C14        -2.6804   -5.5151    0.5592 C.ar      1 <0>         0.0446
     22 C15        -4.0180   -5.1253    0.2992 C.ar      1 <0>        -0.1472
     23 C16        -4.2708   -4.0692   -0.5805 C.ar      1 <0>         0.1511
     24 C17        -5.0916   -5.8510    0.9763 C.ar      1 <0>         0.4461
     25 N3         -4.7756   -6.8403    1.8030 N.ar      1 <0>        -0.5338
     26 C18        -3.5219   -7.1966    2.0390 C.ar      1 <0>         0.1498
     27 C19        -2.4588   -6.5800    1.4554 C.ar      1 <0>        -0.1423
     28 Cl1        -0.8416   -7.1012    1.8116 Cl        1 <0>        -0.0650
     29 N4         -6.3922   -5.5177    0.7630 N.2       1 <0>        -0.6169
     30 C20        -7.0981   -6.1648   -0.1412 C.2       1 <0>         0.6890
     31 N5         -6.5559   -7.2410   -0.7916 N.pl3     1 <0>        -0.8766
     32 N6         -8.3743   -5.7615   -0.4309 N.pl3     1 <0>        -0.8282
     33 H1          0.9325    1.6146    0.5643 H         1 <0>         0.1232
     34 H2         -0.4553    1.6791   -0.5484 H         1 <0>         0.1241
     35 H3         -0.7239    1.6949    1.2111 H         1 <0>         0.1231
     36 H4         -0.3146   -0.2834    2.5047 H         1 <0>         0.1222
     37 H5          0.2576   -1.7671    1.7051 H         1 <0>         0.1232
     38 H6          1.3418   -0.3637    1.8579 H         1 <0>         0.1225
     39 H7         -1.6274   -1.6757    0.2938 H         1 <0>         0.1372
     40 H8         -2.1992   -0.1245    0.9536 H         1 <0>         0.1437
     41 H9         -2.0428    0.9215   -1.2522 H         1 <0>         0.1080
     42 H10        -1.3256   -0.5565   -1.9374 H         1 <0>         0.1022
     43 H11        -5.4759   -0.3414   -2.8962 H         1 <0>         0.0887
     44 H12        -6.4629    0.6530   -1.7748 H         1 <0>         0.0936
     45 H13        -3.9284    1.4575   -3.3061 H         1 <0>         0.0574
     46 H14        -5.4848    2.3381   -3.1958 H         1 <0>         0.0662
     47 H15        -3.3074    2.9042   -1.5787 H         1 <0>         0.0547
     48 H16        -4.9987    3.1821   -1.0753 H         1 <0>         0.0676
     49 H17        -4.7822    1.5778    0.5380 H         1 <0>         0.0845
     50 H18        -3.0909    1.2999    0.0347 H         1 <0>         0.0535
     51 H19        -1.1015   -3.2934   -1.4195 H         1 <0>         0.1244
     52 H20        -0.6054   -5.1248    0.1141 H         1 <0>         0.1348
     53 H21        -5.2858   -3.7607   -0.7833 H         1 <0>         0.1565
     54 H22        -3.3358   -8.0110    2.7235 H         1 <0>         0.1574
     55 H23        -5.6811   -7.5724   -0.5351 H         1 <0>         0.4127
     56 H24        -7.0466   -7.6719   -1.5089 H         1 <0>         0.4015
     57 H25        -8.7584   -4.9992    0.0299 H         1 <0>         0.4288
     58 H26        -8.8942   -6.2381   -1.0968 H         1 <0>         0.4110
     59 H27         0.4081   -0.5330   -0.3298 H         1 <0>         0.4239
@<TRIPOS>BOND
     1    1    2 1
     2    1   33 1
     3    1   34 1
     4    1   35 1
     5    2    3 1
     6    2    4 1
     7    2   59 1
     8    3   36 1
     9    3   37 1
    10    3   38 1
    11    4    5 1
    12    4   39 1
    13    4   40 1
    14    5    6 1
    15    5   41 1
    16    5   42 1
    17    6    7 1
    18    6   15 1
    19    7   11 1
    20    7    8 1
    21    7   12 1
    22    8    9 1
    23    8   43 1
    24    8   44 1
    25    9   10 1
    26    9   45 1
    27    9   46 1
    28   10   11 1
    29   10   47 1
    30   10   48 1
    31   11   49 1
    32   11   50 1
    33   12   13 2
    34   12   14 1
    35   15   16 2
    36   15   17 2
    37   15   18 1
    38   18   23 ar
    39   18   19 ar
    40   19   20 ar
    41   19   51 1
    42   20   21 ar
    43   20   52 1
    44   21   27 ar
    45   21   22 ar
    46   22   23 ar
    47   22   24 ar
    48   23   53 1
    49   24   25 ar
    50   24   29 1
    51   25   26 ar
    52   26   27 ar
    53   26   54 1
    54   27   28 1
    55   29   30 2
    56   30   31 1
    57   30   32 1
    58   31   55 1
    59   31   56 1
    60   32   57 1
    61   32   58 1
@<TRIPOS>MOLECULE
CHEMBL597554
   52    55     0     0     0
SMALL
USER_CHARGES

@<TRIPOS>ATOM
      1 C1         -0.2072    0.4600   -0.5837 C.ar      1 <0>        -0.1056
      2 C2          0.8550    1.3327   -0.4391 C.ar      1 <0>        -0.1198
      3 C3          2.1444    0.8430   -0.3473 C.ar      1 <0>        -0.0983
      4 C4          2.3715   -0.5196   -0.3996 C.ar      1 <0>        -0.1192
      5 C5          1.3093   -1.3924   -0.5433 C.ar      1 <0>        -0.0999
      6 C6          0.0200   -0.9025   -0.6365 C.ar      1 <0>        -0.1202
      7 C7          3.7773   -1.0535   -0.3005 C.3       1 <0>         0.1650
      8 N1          4.1081   -1.3000    1.1052 N.am      1 <0>        -0.7127
      9 C8          5.3219   -1.7826    1.4372 C.2       1 <0>         0.5273
     10 O1          6.1404   -2.0127    0.5723 O.2       1 <0>        -0.5152
     11 C9          5.6622   -2.0362    2.8833 C.3       1 <0>         0.1135
     12 C10         5.6786   -0.7286    3.6323 C.ar      1 <0>        -0.1354
     13 C11         6.7805    0.1018    3.5489 C.ar      1 <0>        -0.0864
     14 C12         6.7956    1.3013    4.2360 C.ar      1 <0>        -0.1157
     15 C13         5.7085    1.6704    5.0060 C.ar      1 <0>        -0.0995
     16 C14         4.6062    0.8404    5.0886 C.ar      1 <0>        -0.1118
     17 C15         4.5894   -0.3571    4.3981 C.ar      1 <0>        -0.1051
     18 O2          6.9496   -2.6505    2.9690 O.3       1 <0>        -0.2713
     19 C16         7.2040   -3.3970    4.0743 C.ar      1 <0>         0.2177
     20 C17         6.2847   -3.4391    5.0949 C.ar      1 <0>        -0.2242
     21 C18         6.5092   -4.1905    6.2399 C.ar      1 <0>         0.0057
     22 C19         7.6790   -4.9139    6.3622 C.ar      1 <0>        -0.1267
     23 C20         8.6120   -4.8836    5.3481 C.ar      1 <0>        -0.0383
     24 C21         8.4178   -4.1342    4.1640 C.ar      1 <0>        -0.1583
     25 C22         9.4598   -4.2115    3.2237 C.2       1 <0>         0.0371
     26 C23        10.5542   -4.9738    3.4845 C.2       1 <0>        -0.2894
     27 S1         10.1993   -5.6399    5.1015 S.3       1 <0>         0.1374
     28 C24        11.7421   -5.1896    2.6448 C.cat     1 <0>         0.6508
     29 N2         12.7276   -5.9817    3.0735 N.pl3     1 <0>        -0.7624
     30 N3         11.8350   -4.5935    1.4539 N.pl3     1 <0>        -0.7593
     31 H1         -1.2150    0.8424   -0.6509 H         1 <0>         0.1266
     32 H2          0.6775    2.3973   -0.3982 H         1 <0>         0.1267
     33 H3          2.9743    1.5249   -0.2350 H         1 <0>         0.1236
     34 H4          1.4868   -2.4569   -0.5845 H         1 <0>         0.1240
     35 H5         -0.8099   -1.5844   -0.7491 H         1 <0>         0.1269
     36 H6          3.8522   -1.9857   -0.8603 H         1 <0>         0.0816
     37 H7          4.4731   -0.3239   -0.7149 H         1 <0>         0.0811
     38 H8          3.4535   -1.1160    1.7970 H         1 <0>         0.4049
     39 H9          4.9144   -2.6969    3.3220 H         1 <0>         0.1134
     40 H10         7.6298   -0.1866    2.9474 H         1 <0>         0.1254
     41 H11         7.6568    1.9497    4.1715 H         1 <0>         0.1285
     42 H12         5.7206    2.6072    5.5433 H         1 <0>         0.1297
     43 H13         3.7571    1.1287    5.6904 H         1 <0>         0.1319
     44 H14         3.7267   -1.0038    4.4596 H         1 <0>         0.1275
     45 H15         5.3681   -2.8751    5.0041 H         1 <0>         0.1470
     46 H16         5.7737   -4.2091    7.0305 H         1 <0>         0.1547
     47 H17         7.8625   -5.5013    7.2497 H         1 <0>         0.1494
     48 H18         9.3905   -3.6657    2.2943 H         1 <0>         0.1539
     49 H19        12.6601   -6.4148    3.9388 H         1 <0>         0.4443
     50 H20        11.1190   -4.0181    1.1424 H         1 <0>         0.4460
     51 H21        12.6186   -4.7359    0.9000 H         1 <0>         0.4365
     52 H22        13.5112   -6.1240    2.5197 H         1 <0>         0.4365
@<TRIPOS>BOND
     1    1    6 ar
     2    1    2 ar
     3    1   31 1
     4    2    3 ar
     5    2   32 1
     6    3    4 ar
     7    3   33 1
     8    4    5 ar
     9    4    7 1
    10    5    6 ar
    11    5   34 1
    12    6   35 1
    13    7    8 1
    14    7   36 1
    15    7   37 1
    16    8    9 am
    17    8   38 1
    18    9   10 2
    19    9   11 1
    20   11   12 1
    21   11   18 1
    22   11   39 1
    23   12   17 ar
    24   12   13 ar
    25   13   14 ar
    26   13   40 1
    27   14   15 ar
    28   14   41 1
    29   15   16 ar
    30   15   42 1
    31   16   17 ar
    32   16   43 1
    33   17   44 1
    34   18   19 1
    35   19   24 ar
    36   19   20 ar
    37   20   21 ar
    38   20   45 1
    39   21   22 ar
    40   21   46 1
    41   22   23 ar
    42   22   47 1
    43   23   27 1
    44   23   24 ar
    45   24   25 1
    46   25   26 2
    47   25   48 1
    48   26   27 1
    49   26   28 1
    50   28   29 2
    51   28   30 1
    52   29   49 1
    53   29   52 1
    54   30   50 1
    55   30   51 1
@<TRIPOS>MOLECULE
CHEMBL597554__1
   52    55     0     0     0
SMALL
USER_CHARGES

@<TRIPOS>ATOM
      1 C1         -0.2338    0.8772   -0.0668 C.ar      1 <0>        -0.1056
      2 C2          0.9477    1.5600   -0.2880 C.ar      1 <0>        -0.1202
      3 C3          2.1513    0.8803   -0.2765 C.ar      1 <0>        -0.1000
      4 C4          2.1736   -0.4821   -0.0433 C.ar      1 <0>        -0.1192
      5 C5          0.9922   -1.1647    0.1788 C.ar      1 <0>        -0.0983
      6 C6         -0.2116   -0.4852    0.1659 C.ar      1 <0>        -0.1198
      7 C7          3.4857   -1.2233   -0.0317 C.3       1 <0>         0.1650
      8 N1          4.0311   -1.2294    1.3279 N.am      1 <0>        -0.7130
      9 C8          5.2062   -1.8394    1.5799 C.2       1 <0>         0.5274
     10 O1          5.8121   -2.3832    0.6810 O.2       1 <0>        -0.5148
     11 C9          5.7672   -1.8457    2.9786 C.3       1 <0>         0.1137
     12 C10         4.8554   -2.6352    3.8820 C.ar      1 <0>        -0.1347
     13 C11         4.9893   -4.0082    3.9701 C.ar      1 <0>        -0.0875
     14 C12         4.1528   -4.7324    4.7989 C.ar      1 <0>        -0.1153
     15 C13         3.1828   -4.0836    5.5398 C.ar      1 <0>        -0.1001
     16 C14         3.0496   -2.7104    5.4524 C.ar      1 <0>        -0.1110
     17 C15         3.8888   -1.9857    4.6269 C.ar      1 <0>        -0.1058
     18 O2          7.0642   -2.4455    2.9688 O.3       1 <0>        -0.2715
     19 C16         7.9104   -2.1008    3.9733 C.ar      1 <0>         0.2172
     20 C17         7.4632   -1.2999    4.9965 C.ar      1 <0>        -0.2237
     21 C18         8.2983   -0.9265    6.0404 C.ar      1 <0>         0.0057
     22 C19         9.6071   -1.3661    6.0571 C.ar      1 <0>        -0.1265
     23 C20        10.0724   -2.1704    5.0391 C.ar      1 <0>        -0.0384
     24 C21         9.2514   -2.5765    3.9610 C.ar      1 <0>        -0.1581
     25 C22         9.8731   -3.4003    3.0065 C.2       1 <0>         0.0368
     26 C23        11.1756   -3.7554    3.1619 C.2       1 <0>        -0.2893
     27 S1         11.6336   -2.9353    4.6791 S.3       1 <0>         0.1376
     28 C24        12.0056   -4.6002    2.2899 C.cat     1 <0>         0.6507
     29 N2         13.2794   -4.8407    2.6095 N.pl3     1 <0>        -0.7624
     30 N3         11.4853   -5.1267    1.1789 N.pl3     1 <0>        -0.7592
     31 H1         -1.1737    1.4090   -0.0714 H         1 <0>         0.1266
     32 H2          0.9303    2.6244   -0.4702 H         1 <0>         0.1269
     33 H3          3.0743    1.4136   -0.4500 H         1 <0>         0.1240
     34 H4          1.0095   -2.2291    0.3606 H         1 <0>         0.1236
     35 H5         -1.1346   -1.0185    0.3390 H         1 <0>         0.1267
     36 H6          3.3264   -2.2491   -0.3640 H         1 <0>         0.0811
     37 H7          4.1881   -0.7289   -0.7028 H         1 <0>         0.0817
     38 H8          3.5464   -0.7945    2.0469 H         1 <0>         0.4046
     39 H9          5.8433   -0.8216    3.3441 H         1 <0>         0.1138
     40 H10         5.7471   -4.5152    3.3913 H         1 <0>         0.1253
     41 H11         4.2569   -5.8052    4.8672 H         1 <0>         0.1283
     42 H12         2.5289   -4.6495    6.1867 H         1 <0>         0.1297
     43 H13         2.2915   -2.2035    6.0310 H         1 <0>         0.1319
     44 H14         3.7871   -0.9125    4.5614 H         1 <0>         0.1272
     45 H15         6.4403   -0.9535    4.9881 H         1 <0>         0.1472
     46 H16         7.9267   -0.2957    6.8344 H         1 <0>         0.1548
     47 H17        10.2643   -1.0803    6.8651 H         1 <0>         0.1494
     48 H18         9.3158   -3.7512    2.1505 H         1 <0>         0.1540
     49 H19        13.6574   -4.4581    3.4167 H         1 <0>         0.4444
     50 H20        10.5599   -4.9520    0.9467 H         1 <0>         0.4460
     51 H21        12.0328   -5.6839    0.6038 H         1 <0>         0.4365
     52 H22        13.8268   -5.3979    2.0344 H         1 <0>         0.4365
@<TRIPOS>BOND
     1    1    6 ar
     2    1    2 ar
     3    1   31 1
     4    2    3 ar
     5    2   32 1
     6    3    4 ar
     7    3   33 1
     8    4    5 ar
     9    4    7 1
    10    5    6 ar
    11    5   34 1
    12    6   35 1
    13    7    8 1
    14    7   36 1
    15    7   37 1
    16    8    9 am
    17    8   38 1
    18    9   10 2
    19    9   11 1
    20   11   12 1
    21   11   18 1
    22   11   39 1
    23   12   17 ar
    24   12   13 ar
    25   13   14 ar
    26   13   40 1
    27   14   15 ar
    28   14   41 1
    29   15   16 ar
    30   15   42 1
    31   16   17 ar
    32   16   43 1
    33   17   44 1
    34   18   19 1
    35   19   24 ar
    36   19   20 ar
    37   20   21 ar
    38   20   45 1
    39   21   22 ar
    40   21   46 1
    41   22   23 ar
    42   22   47 1
    43   23   27 1
    44   23   24 ar
    45   24   25 1
    46   25   26 2
    47   25   48 1
    48   26   27 1
    49   26   28 1
    50   28   29 2
    51   28   30 1
    52   29   49 1
    53   29   52 1
    54   30   50 1
    55   30   51 1
@<TRIPOS>MOLECULE
CHEMBL562412
   64    68     0     0     0
SMALL
USER_CHARGES

@<TRIPOS>ATOM
      1 C1         -4.8090   -5.6807    0.5160 C.3       1 <0>        -0.1436
      2 C2         -4.5262   -4.5492   -0.4742 C.3       1 <0>        -0.0470
      3 C3         -5.7899   -4.2527   -1.2843 C.3       1 <0>        -0.1337
      4 C4         -4.1119   -3.3126    0.2809 C.2       1 <0>         0.2148
      5 N1         -4.8561   -2.2580    0.2553 N.2       1 <0>        -0.5045
      6 C5         -4.4911   -1.0315    0.9561 C.3       1 <0>         0.0385
      7 C6         -3.7931   -1.3376    2.2803 C.3       1 <0>        -0.1105
      8 C7         -2.6850   -2.3308    2.0452 C.ar      1 <0>        -0.0740
      9 C8         -2.8570   -3.3045    1.0575 C.ar      1 <0>        -0.0878
     10 C9         -1.8530   -4.2380    0.8214 C.ar      1 <0>        -0.0804
     11 C10        -0.6890   -4.1948    1.5764 C.ar      1 <0>         0.1328
     12 C11        -0.5320   -3.2254    2.5598 C.ar      1 <0>        -0.1247
     13 C12        -1.5243   -2.2938    2.7843 C.ar      1 <0>        -0.0953
     14 N2          0.3270   -5.1283    1.3475 N.am      1 <0>        -0.6620
     15 C13         0.0159   -6.3828    0.9653 C.2       1 <0>         0.5553
     16 O1         -1.1476   -6.7306    0.9106 O.2       1 <0>        -0.4987
     17 C14         1.0898   -7.3360    0.6126 C.ar      1 <0>        -0.0705
     18 C15         0.7623   -8.6227    0.2149 C.ar      1 <0>        -0.0651
     19 C16         1.7811   -9.5264   -0.1200 C.ar      1 <0>        -0.0026
     20 C17         1.4765  -10.8395   -0.5277 C.ar      1 <0>        -0.0663
     21 C18         2.4763  -11.6999   -0.8484 C.ar      1 <0>        -0.0946
     22 C19         3.8217  -11.2983   -0.7790 C.ar      1 <0>        -0.1478
     23 C20         4.1527  -10.0135   -0.3811 C.ar      1 <0>        -0.0225
     24 C21         3.1352   -9.1104   -0.0470 C.ar      1 <0>        -0.0651
     25 C22         3.4400   -7.7921    0.3612 C.ar      1 <0>         0.1972
     26 C23         2.4308   -6.9275    0.6780 C.ar      1 <0>        -0.0948
     27 N3          4.7673   -7.3738    0.4366 N.pl3     1 <0>        -0.6381
     28 C24         5.0960   -6.0578    0.1544 C.ar      1 <0>         0.5436
     29 N4          4.1559   -5.2380   -0.2924 N.ar      1 <0>        -0.5572
     30 C25         4.4362   -3.9758   -0.5713 C.ar      1 <0>         0.1886
     31 C26         5.7310   -3.5150   -0.3907 C.ar      1 <0>        -0.2603
     32 C27         6.6898   -4.3994    0.0782 C.ar      1 <0>         0.1939
     33 N5          6.3416   -5.6477    0.3430 N.ar      1 <0>        -0.5545
     34 C28         4.8922  -12.2553   -1.1332 C.cat     1 <0>         0.6012
     35 N6          4.7105  -13.5601   -0.9375 N.pl3     1 <0>        -0.7558
     36 N7          6.0379  -11.8123   -1.6480 N.pl3     1 <0>        -0.7610
     37 H1         -5.1087   -6.5751   -0.0301 H         1 <0>         0.0642
     38 H2         -3.9088   -5.8919    1.0931 H         1 <0>         0.0646
     39 H3         -5.6111   -5.3811    1.1906 H         1 <0>         0.0558
     40 H4         -3.7242   -4.8487   -1.1488 H         1 <0>         0.0870
     41 H5         -6.6146   -4.0369   -0.6050 H         1 <0>         0.0613
     42 H6         -5.6147   -3.3909   -1.9284 H         1 <0>         0.0599
     43 H7         -6.0406   -5.1189   -1.8965 H         1 <0>         0.0542
     44 H8         -3.8213   -0.4461    0.3263 H         1 <0>         0.0786
     45 H9         -5.3924   -0.4512    1.1533 H         1 <0>         0.0978
     46 H10        -3.3761   -0.4186    2.6922 H         1 <0>         0.0897
     47 H11        -4.5137   -1.7565    2.9826 H         1 <0>         0.0841
     48 H12        -1.9783   -4.9905    0.0570 H         1 <0>         0.1439
     49 H13         0.3752   -3.1962    3.1451 H         1 <0>         0.1286
     50 H14        -1.3951   -1.5433    3.5501 H         1 <0>         0.1336
     51 H15         1.2555   -4.8730    1.4638 H         1 <0>         0.4109
     52 H16        -0.2724   -8.9280    0.1636 H         1 <0>         0.1593
     53 H17         0.4474  -11.1621   -0.5850 H         1 <0>         0.1564
     54 H18         2.2351  -12.7054   -1.1602 H         1 <0>         0.1417
     55 H19         5.1879   -9.7101   -0.3288 H         1 <0>         0.1381
     56 H20         2.6678   -5.9198    0.9860 H         1 <0>         0.1496
     57 H21         5.4610   -8.0040    0.6866 H         1 <0>         0.4236
     58 H22         3.6658   -3.3124   -0.9355 H         1 <0>         0.1768
     59 H23         5.9873   -2.4892   -0.6110 H         1 <0>         0.1554
     60 H24         7.7079   -4.0722    0.2294 H         1 <0>         0.1776
     61 H25         3.8761  -13.8827   -0.5626 H         1 <0>         0.4476
     62 H26         6.1702  -10.8620   -1.7906 H         1 <0>         0.4447
     63 H27         6.7400  -12.4399   -1.8803 H         1 <0>         0.4339
     64 H28         5.4127  -14.1877   -1.1698 H         1 <0>         0.4336
@<TRIPOS>BOND
     1    1    2 1
     2    1   37 1
     3    1   38 1
     4    1   39 1
     5    2    3 1
     6    2    4 1
     7    2   40 1
     8    3   41 1
     9    3   42 1
    10    3   43 1
    11    4    9 1
    12    4    5 2
    13    5    6 1
    14    6    7 1
    15    6   44 1
    16    6   45 1
    17    7    8 1
    18    7   46 1
    19    7   47 1
    20    8   13 ar
    21    8    9 ar
    22    9   10 ar
    23   10   11 ar
    24   10   48 1
    25   11   12 ar
    26   11   14 1
    27   12   13 ar
    28   12   49 1
    29   13   50 1
    30   14   15 am
    31   14   51 1
    32   15   16 2
    33   15   17 1
    34   17   26 ar
    35   17   18 ar
    36   18   19 ar
    37   18   52 1
    38   19   24 ar
    39   19   20 ar
    40   20   21 ar
    41   20   53 1
    42   21   22 ar
    43   21   54 1
    44   22   23 ar
    45   22   34 1
    46   23   24 ar
    47   23   55 1
    48   24   25 ar
    49   25   26 ar
    50   25   27 1
    51   26   56 1
    52   27   28 1
    53   27   57 1
    54   28   33 ar
    55   28   29 ar
    56   29   30 ar
    57   30   31 ar
    58   30   58 1
    59   31   32 ar
    60   31   59 1
    61   32   33 ar
    62   32   60 1
    63   34   35 2
    64   34   36 1
    65   35   61 1
    66   35   64 1
    67   36   62 1
    68   36   63 1
@<TRIPOS>MOLECULE
CHEMBL227769
   40    42     0     0     0
SMALL
USER_CHARGES

@<TRIPOS>ATOM
      1 C1          0.0175    1.4212   -0.0202 C.ar      1 <0>        -0.0138
      2 C2          1.1831    2.1292   -0.0185 C.ar      1 <0>        -0.1287
      3 C3          2.4050    1.4440   -0.0242 C.ar      1 <0>         0.0409
      4 C4          2.4099    0.0268   -0.0316 C.ar      1 <0>        -0.1498
      5 C5          1.1976   -0.6677   -0.0332 C.ar      1 <0>         0.0531
      6 C6          0.0242    0.0294   -0.0276 C.ar      1 <0>        -0.6916
      7 S1         -1.5051   -0.8457   -0.0290 S.o2      1 <0>         2.6918
      8 O1         -1.2379   -2.1312    0.5145 O.2       1 <0>        -0.9499
      9 O2         -2.4749    0.0305    0.5284 O.2       1 <0>        -0.9474
     10 N1         -1.9333   -1.0806   -1.6114 N.pl3     1 <0>        -0.9995
     11 C7         -2.7506   -0.0901   -2.3299 C.3       1 <0>         0.0850
     12 C8         -2.0562    0.2389   -3.6564 C.3       1 <0>         0.0458
     13 O3         -1.7732   -0.9766   -4.3537 O.3       1 <0>        -0.3738
     14 C9         -0.8735   -1.8496   -3.6665 C.3       1 <0>         0.0462
     15 C10        -1.5026   -2.2829   -2.3423 C.3       1 <0>         0.0853
     16 C11         3.7019   -0.6583   -0.0369 C.ar      1 <0>         0.4310
     17 N2          4.8130    0.0674   -0.0346 N.ar      1 <0>        -0.5168
     18 C12         4.7973    1.3921   -0.0276 C.ar      1 <0>         0.1480
     19 C13         3.6450    2.1149   -0.0223 C.ar      1 <0>        -0.1315
     20 Cl1         3.7008    3.8499   -0.0139 Cl        1 <0>        -0.0491
     21 N3          3.7637   -2.0164   -0.0437 N.2       1 <0>        -0.6375
     22 C14         3.9046   -2.6748    1.0882 C.2       1 <0>         0.6951
     23 N4          3.8789   -2.0010    2.2801 N.pl3     1 <0>        -0.8727
     24 N5          4.0767   -4.0333    1.0733 N.pl3     1 <0>        -0.8280
     25 H1         -0.9250    1.9484   -0.0113 H         1 <0>         0.1446
     26 H2          1.1643    3.2090   -0.0132 H         1 <0>         0.1453
     27 H3          1.1890   -1.7477   -0.0393 H         1 <0>         0.1493
     28 H4         -3.7400   -0.5034   -2.5261 H         1 <0>         0.0878
     29 H5         -2.8428    0.8149   -1.7294 H         1 <0>         0.1002
     30 H6         -2.7103    0.8637   -4.2646 H         1 <0>         0.1095
     31 H7         -1.1253    0.7701   -3.4580 H         1 <0>         0.0568
     32 H8         -0.6767   -2.7274   -4.2820 H         1 <0>         0.1099
     33 H9          0.0617   -1.3260   -3.4682 H         1 <0>         0.0564
     34 H10        -0.7687   -2.8294   -1.7499 H         1 <0>         0.0994
     35 H11        -2.3641   -2.9208   -2.5397 H         1 <0>         0.0875
     36 H12         5.7392    1.9205   -0.0261 H         1 <0>         0.1628
     37 H13         3.6815   -1.0514    2.2962 H         1 <0>         0.4134
     38 H14         4.0582   -2.4733    3.1082 H         1 <0>         0.4047
     39 H15         4.0949   -4.5106    0.2290 H         1 <0>         0.4266
     40 H16         4.1805   -4.5182    1.9069 H         1 <0>         0.4136
@<TRIPOS>BOND
     1    1    6 ar
     2    1    2 ar
     3    1   25 1
     4    2    3 ar
     5    2   26 1
     6    3   19 ar
     7    3    4 ar
     8    4    5 ar
     9    4   16 ar
    10    5    6 ar
    11    5   27 1
    12    6    7 1
    13    7    8 2
    14    7    9 2
    15    7   10 1
    16   10   15 1
    17   10   11 1
    18   11   12 1
    19   11   28 1
    20   11   29 1
    21   12   13 1
    22   12   30 1
    23   12   31 1
    24   13   14 1
    25   14   15 1
    26   14   32 1
    27   14   33 1
    28   15   34 1
    29   15   35 1
    30   16   17 ar
    31   16   21 1
    32   17   18 ar
    33   18   19 ar
    34   18   36 1
    35   19   20 1
    36   21   22 2
    37   22   23 1
    38   22   24 1
    39   23   37 1
    40   23   38 1
    41   24   39 1
    42   24   40 1
@<TRIPOS>MOLECULE
CHEMBL227770
   44    46     0     0     0
SMALL
USER_CHARGES

@<TRIPOS>ATOM
      1 C1          0.2093    1.5401   -0.0468 C.3       1 <0>         0.0243
      2 N1          0.1905    0.0712   -0.0456 N.3       1 <0>        -0.5424
      3 C2         -1.1845   -0.4378   -0.1361 C.3       1 <0>         0.0427
      4 C3         -1.1516   -1.9595   -0.3144 C.3       1 <0>         0.1201
      5 N2         -0.3438   -2.5395    0.7693 N.pl3     1 <0>        -0.9985
      6 C4          0.9973   -1.9858    1.0103 C.3       1 <0>         0.1206
      7 C5          0.8799   -0.4631    1.1364 C.3       1 <0>         0.0433
      8 S1         -0.9285   -3.7833    1.6930 S.o2      1 <0>         2.6910
      9 O1         -0.2259   -3.7376    2.9273 O.2       1 <0>        -0.9533
     10 O2         -2.3458   -3.7119    1.6201 O.2       1 <0>        -0.9505
     11 C6         -0.4585   -5.2857    0.9015 C.ar      1 <0>        -0.6882
     12 C7         -1.3045   -5.8548   -0.0467 C.ar      1 <0>        -0.0129
     13 C8         -0.9715   -7.0167   -0.6775 C.ar      1 <0>        -0.1290
     14 C9          0.2411   -7.6465   -0.3663 C.ar      1 <0>         0.0407
     15 C10         1.1011   -7.0654    0.5987 C.ar      1 <0>        -0.1499
     16 C11         0.7314   -5.8708    1.2229 C.ar      1 <0>         0.0529
     17 C12         2.3590   -7.7468    0.9005 C.ar      1 <0>         0.4307
     18 N3          2.6462   -8.8757    0.2639 N.ar      1 <0>        -0.5156
     19 C13         1.8352   -9.4103   -0.6365 C.ar      1 <0>         0.1468
     20 C14         0.6452   -8.8483   -0.9817 C.ar      1 <0>        -0.1307
     21 Cl1        -0.3678   -9.6059   -2.1706 Cl        1 <0>        -0.0495
     22 N4          3.2206   -7.2324    1.8176 N.2       1 <0>        -0.6346
     23 C15         3.0704   -7.5172    3.0947 C.2       1 <0>         0.6911
     24 N5          2.1210   -8.4228    3.4872 N.pl3     1 <0>        -0.8741
     25 N6          3.8634   -6.9079    4.0301 N.pl3     1 <0>        -0.8284
     26 H1          1.2414    1.8903   -0.0561 H         1 <0>         0.0714
     27 H2         -0.3077    1.9093   -0.9326 H         1 <0>         0.0711
     28 H3         -0.2921    1.9106    0.8473 H         1 <0>         0.0271
     29 H4         -1.7248   -0.1902    0.7776 H         1 <0>         0.0421
     30 H5         -1.6855    0.0177   -0.9903 H         1 <0>         0.0911
     31 H6         -2.1660   -2.3556   -0.2672 H         1 <0>         0.0989
     32 H7         -0.7037   -2.2057   -1.2771 H         1 <0>         0.0809
     33 H8          1.4037   -2.3994    1.9333 H         1 <0>         0.0977
     34 H9          1.6518   -2.2346    0.1750 H         1 <0>         0.0807
     35 H10         1.8760   -0.0259    1.2052 H         1 <0>         0.0909
     36 H11         0.3107   -0.2152    2.0324 H         1 <0>         0.0420
     37 H12        -2.2388   -5.3687   -0.2858 H         1 <0>         0.1446
     38 H13        -1.6368   -7.4483   -1.4106 H         1 <0>         0.1451
     39 H14         1.3805   -5.4167    1.9570 H         1 <0>         0.1477
     40 H15         2.1309  -10.3313   -1.1168 H         1 <0>         0.1632
     41 H16         1.6122   -8.9113    2.8213 H         1 <0>         0.4142
     42 H17         1.9574   -8.5756    4.4310 H         1 <0>         0.4044
     43 H18         4.5359   -6.2665    3.7521 H         1 <0>         0.4265
     44 H19         3.7528   -7.1177    4.9706 H         1 <0>         0.4138
@<TRIPOS>BOND
     1    1    2 1
     2    1   26 1
     3    1   27 1
     4    1   28 1
     5    2    7 1
     6    2    3 1
     7    3    4 1
     8    3   29 1
     9    3   30 1
    10    4    5 1
    11    4   31 1
    12    4   32 1
    13    5    6 1
    14    5    8 1
    15    6    7 1
    16    6   33 1
    17    6   34 1
    18    7   35 1
    19    7   36 1
    20    8    9 2
    21    8   10 2
    22    8   11 1
    23   11   16 ar
    24   11   12 ar
    25   12   13 ar
    26   12   37 1
    27   13   14 ar
    28   13   38 1
    29   14   20 ar
    30   14   15 ar
    31   15   16 ar
    32   15   17 ar
    33   16   39 1
    34   17   18 ar
    35   17   22 1
    36   18   19 ar
    37   19   20 ar
    38   19   40 1
    39   20   21 1
    40   22   23 2
    41   23   24 1
    42   23   25 1
    43   24   41 1
    44   24   42 1
    45   25   43 1
    46   25   44 1
@<TRIPOS>MOLECULE
CHEMBL227770__1
   45    47     0     0     0
SMALL
USER_CHARGES

@<TRIPOS>ATOM
      1 C1          0.2085    1.5333   -0.0570 C.3       1 <0>        -0.0471
      2 N1          0.1902    0.0644   -0.0545 N.4       1 <0>        -0.3849
      3 C2         -1.2008   -0.4059   -0.0536 C.3       1 <0>        -0.0189
      4 C3         -1.2224   -1.9339   -0.1666 C.3       1 <0>         0.0902
      5 N2         -0.3916   -2.4929    0.9111 N.pl3     1 <0>        -1.0142
      6 C4          0.9679   -1.9591    1.0864 C.3       1 <0>         0.0901
      7 C5          0.8861   -0.4300    1.1403 C.3       1 <0>        -0.0183
      8 S1         -0.9707   -3.6890    1.8993 S.o2      1 <0>         2.6921
      9 O1         -0.2259   -3.6140    3.1071 O.2       1 <0>        -0.9392
     10 O2         -2.3879   -3.5888    1.8707 O.2       1 <0>        -0.9358
     11 C6         -0.5596   -5.2293    1.1490 C.ar      1 <0>        -0.6965
     12 C7         -1.4489   -5.8136    0.2512 C.ar      1 <0>        -0.0211
     13 C8         -1.1620   -7.0048   -0.3467 C.ar      1 <0>        -0.1217
     14 C9          0.0469   -7.6497   -0.0527 C.ar      1 <0>         0.0455
     15 C10         0.9512   -7.0532    0.8611 C.ar      1 <0>        -0.1522
     16 C11         0.6280   -5.8287    1.4524 C.ar      1 <0>         0.0566
     17 C12         2.2039   -7.7509    1.1461 C.ar      1 <0>         0.4316
     18 N3          2.4456   -8.9084    0.5429 N.ar      1 <0>        -0.5106
     19 C13         1.5935   -9.4573   -0.3097 C.ar      1 <0>         0.1558
     20 C14         0.4046   -8.8818   -0.6360 C.ar      1 <0>        -0.1347
     21 Cl1        -0.6638   -9.6595   -1.7618 Cl        1 <0>        -0.0416
     22 N4          3.1068   -7.2227    2.0146 N.2       1 <0>        -0.6398
     23 C15         2.9940   -7.4575    3.3056 C.2       1 <0>         0.6936
     24 N5          2.0397   -8.3267    3.7626 N.pl3     1 <0>        -0.8729
     25 N6          3.8309   -6.8323    4.1909 N.pl3     1 <0>        -0.8276
     26 H1          1.2406    1.8837   -0.0658 H         1 <0>         0.1263
     27 H2         -0.3078    1.9016   -0.9435 H         1 <0>         0.1264
     28 H3         -0.2936    1.9044    0.8364 H         1 <0>         0.1232
     29 H4         -1.6862   -0.1033    0.8743 H         1 <0>         0.1365
     30 H5         -1.7320    0.0287   -0.9004 H         1 <0>         0.1473
     31 H6         -2.2460   -2.2943   -0.0645 H         1 <0>         0.1401
     32 H7         -0.8195   -2.2353   -1.1335 H         1 <0>         0.1013
     33 H8          1.3924   -2.3362    2.0168 H         1 <0>         0.1390
     34 H9          1.5920   -2.2631    0.2460 H         1 <0>         0.1013
     35 H10         1.8926   -0.0130    1.1732 H         1 <0>         0.1471
     36 H11         0.3375   -0.1265    2.0320 H         1 <0>         0.1364
     37 H12        -2.3804   -5.3159    0.0252 H         1 <0>         0.1441
     38 H13        -1.8608   -7.4479   -1.0408 H         1 <0>         0.1477
     39 H14         1.3110   -5.3627    2.1472 H         1 <0>         0.1477
     40 H15         1.8533  -10.4015   -0.7651 H         1 <0>         0.1673
     41 H16         1.4984   -8.8278    3.1326 H         1 <0>         0.4147
     42 H17         1.9049   -8.4414    4.7164 H         1 <0>         0.4067
     43 H18         4.5069   -6.2165    3.8672 H         1 <0>         0.4263
     44 H19         3.7478   -7.0052    5.1418 H         1 <0>         0.4158
     45 H20         0.6579   -0.2780   -0.8804 H         1 <0>         0.4262
@<TRIPOS>BOND
     1    1    2 1
     2    1   26 1
     3    1   27 1
     4    1   28 1
     5    2    7 1
     6    2    3 1
     7    2   45 1
     8    3    4 1
     9    3   29 1
    10    3   30 1
    11    4    5 1
    12    4   31 1
    13    4   32 1
    14    5    6 1
    15    5    8 1
    16    6    7 1
    17    6   33 1
    18    6   34 1
    19    7   35 1
    20    7   36 1
    21    8    9 2
    22    8   10 2
    23    8   11 1
    24   11   16 ar
    25   11   12 ar
    26   12   13 ar
    27   12   37 1
    28   13   14 ar
    29   13   38 1
    30   14   20 ar
    31   14   15 ar
    32   15   16 ar
    33   15   17 ar
    34   16   39 1
    35   17   18 ar
    36   17   22 1
    37   18   19 ar
    38   19   20 ar
    39   19   40 1
    40   20   21 1
    41   22   23 2
    42   23   24 1
    43   23   25 1
    44   24   41 1
    45   24   42 1
    46   25   43 1
    47   25   44 1
@<TRIPOS>MOLECULE
CHEMBL171715
   55    58     0     0     0
SMALL
USER_CHARGES

@<TRIPOS>ATOM
      1 C1          1.3623    1.4568    0.1436 C.3       1 <0>        -0.2195
      2 S1          0.6865   -0.2215    0.0112 S.3       1 <0>         0.1696
      3 C2          0.6011   -0.5109   -1.7247 C.2       1 <0>        -0.0863
      4 C3          0.1500   -1.6425   -2.4021 C.2       1 <0>        -0.0812
      5 C4          0.1797   -1.6345   -3.7792 C.2       1 <0>         0.0205
      6 C5          0.6545   -0.5071   -4.4264 C.2       1 <0>        -0.3221
      7 S2          1.0628    0.5729   -3.0656 S.3       1 <0>         0.1817
      8 C6          0.7838   -0.2610   -5.8623 C.cat     1 <0>         0.6521
      9 N1          1.2709    0.9067   -6.3002 N.pl3     1 <0>        -0.7722
     10 N2          0.4149   -1.2034   -6.7389 N.pl3     1 <0>        -0.7659
     11 C7         -0.3491   -2.8260   -1.6584 C.2       1 <0>         0.1504
     12 C8         -0.7903   -3.9458   -2.3045 C.2       1 <0>        -0.2672
     13 S3         -1.2416   -4.9755   -0.9178 S.3       1 <0>         0.1655
     14 C9         -0.8341   -3.9051    0.3147 C.2       1 <0>         0.3075
     15 N3         -0.3842   -2.8520   -0.3315 N.2       1 <0>        -0.5676
     16 N4         -0.9419   -4.0912    1.6844 N.pl3     1 <0>        -0.6146
     17 C10        -1.3263   -5.3350    2.1925 C.ar      1 <0>         0.2107
     18 C11        -0.9353   -6.5016    1.5475 C.ar      1 <0>        -0.1819
     19 C12        -1.3170   -7.7290    2.0523 C.ar      1 <0>         0.0202
     20 C13        -2.0876   -7.7977    3.1986 C.ar      1 <0>        -0.6933
     21 C14        -2.4790   -6.6383    3.8429 C.ar      1 <0>         0.0168
     22 C15        -2.0956   -5.4078    3.3470 C.ar      1 <0>        -0.1600
     23 S4         -2.5723   -9.3659    3.8392 S.o2      1 <0>         2.6897
     24 O1         -3.7449   -9.1445    4.6108 O.2       1 <0>        -0.9495
     25 O2         -2.5379  -10.2778    2.7500 O.2       1 <0>        -0.9503
     26 N5         -1.3934   -9.8481    4.8976 N.pl3     1 <0>        -0.9945
     27 C16        -0.2448  -10.6361    4.4303 C.3       1 <0>         0.1178
     28 C17         1.0450   -9.9334    4.8655 C.3       1 <0>        -0.1360
     29 C18         1.0121   -9.7067    6.3787 C.3       1 <0>        -0.1197
     30 C19        -0.1727   -8.8061    6.7356 C.3       1 <0>        -0.1363
     31 C20        -1.4732   -9.4908    6.3205 C.3       1 <0>         0.1177
     32 H1          2.3447    1.4910   -0.3273 H         1 <0>         0.0958
     33 H2          0.6946    2.1578   -0.3573 H         1 <0>         0.0958
     34 H3          1.4535    1.7299    1.1949 H         1 <0>         0.1310
     35 H4         -0.1603   -2.4910   -4.3424 H         1 <0>         0.1556
     36 H5          1.5381    1.5895   -5.6651 H         1 <0>         0.4409
     37 H6          0.0620   -2.0494   -6.4217 H         1 <0>         0.4433
     38 H7          0.5006   -1.0402   -7.6912 H         1 <0>         0.4348
     39 H8         -0.8500   -4.1514   -3.3631 H         1 <0>         0.1962
     40 H9         -0.7504   -3.3580    2.2900 H         1 <0>         0.4293
     41 H10        -0.3338   -6.4486    0.6521 H         1 <0>         0.1387
     42 H11        -1.0136   -8.6363    1.5512 H         1 <0>         0.1492
     43 H12        -3.0810   -6.6955    4.7377 H         1 <0>         0.1502
     44 H13        -2.3973   -4.5029    3.8536 H         1 <0>         0.1428
     45 H14        -0.2833  -11.6334    4.8686 H         1 <0>         0.0794
     46 H15        -0.2711  -10.7112    3.3433 H         1 <0>         0.0905
     47 H16         1.9025  -10.5557    4.6095 H         1 <0>         0.0774
     48 H17         1.1263   -8.9735    4.3555 H         1 <0>         0.0650
     49 H18         0.9060  -10.6649    6.8872 H         1 <0>         0.0676
     50 H19         1.9395   -9.2289    6.6946 H         1 <0>         0.0656
     51 H20        -0.1819   -8.6260    7.8106 H         1 <0>         0.0783
     52 H21        -0.0800   -7.8568    6.2080 H         1 <0>         0.0650
     53 H22        -2.3097   -8.8105    6.4801 H         1 <0>         0.0911
     54 H23        -1.6141  -10.3926    6.9163 H         1 <0>         0.0791
     55 H24         1.3566    1.0699   -7.2525 H         1 <0>         0.4351
@<TRIPOS>BOND
     1    1    2 1
     2    1   32 1
     3    1   33 1
     4    1   34 1
     5    2    3 1
     6    3    7 1
     7    3    4 2
     8    4    5 1
     9    4   11 1
    10    5    6 2
    11    5   35 1
    12    6    7 1
    13    6    8 1
    14    8    9 2
    15    8   10 1
    16    9   36 1
    17    9   55 1
    18   10   37 1
    19   10   38 1
    20   11   15 1
    21   11   12 2
    22   12   13 1
    23   12   39 1
    24   13   14 1
    25   14   15 2
    26   14   16 1
    27   16   17 1
    28   16   40 1
    29   17   22 ar
    30   17   18 ar
    31   18   19 ar
    32   18   41 1
    33   19   20 ar
    34   19   42 1
    35   20   21 ar
    36   20   23 1
    37   21   22 ar
    38   21   43 1
    39   22   44 1
    40   23   24 2
    41   23   25 2
    42   23   26 1
    43   26   31 1
    44   26   27 1
    45   27   28 1
    46   27   45 1
    47   27   46 1
    48   28   29 1
    49   28   47 1
    50   28   48 1
    51   29   30 1
    52   29   49 1
    53   29   50 1
    54   30   31 1
    55   30   51 1
    56   30   52 1
    57   31   53 1
    58   31   54 1
@<TRIPOS>MOLECULE
CHEMBL109367
   54    57     0     0     0
SMALL
USER_CHARGES

@<TRIPOS>ATOM
      1 C1          4.0704   -5.9659   -3.0393 C.3       1 <0>        -0.1434
      2 C2          4.7012   -4.9111   -2.1280 C.3       1 <0>        -0.0467
      3 C3          6.1844   -4.7610   -2.4722 C.3       1 <0>        -0.1340
      4 C4          4.0027   -3.5910   -2.3291 C.2       1 <0>         0.2142
      5 N1          4.6424   -2.5898   -2.8342 N.2       1 <0>        -0.5039
      6 C5          4.0160   -1.2873   -3.0333 C.3       1 <0>         0.0382
      7 C6          2.5519   -1.4344   -3.4445 C.3       1 <0>        -0.1108
      8 C7          1.8564   -2.3750   -2.4952 C.ar      1 <0>        -0.0730
      9 C8          2.5831   -3.4394   -1.9551 C.ar      1 <0>        -0.0881
     10 C9          1.9660   -4.3269   -1.0796 C.ar      1 <0>        -0.0810
     11 C10         0.6282   -4.1475   -0.7556 C.ar      1 <0>         0.1300
     12 C11        -0.0855   -3.0885   -1.3039 C.ar      1 <0>        -0.1233
     13 C12         0.5316   -2.2037   -2.1630 C.ar      1 <0>        -0.0954
     14 N2         -0.0025   -5.0341    0.1233 N.am      1 <0>        -0.6631
     15 C13         0.3551   -6.3334    0.1417 C.2       1 <0>         0.5517
     16 O1          1.1574   -6.7546   -0.6687 O.2       1 <0>        -0.4993
     17 C14        -0.2282   -7.2463    1.1474 C.ar      1 <0>        -0.0969
     18 C15        -1.1600   -6.7545    2.0786 C.ar      1 <0>        -0.0827
     19 C16        -1.7091   -7.5733    3.0118 C.ar      1 <0>        -0.0930
     20 C17        -1.3477   -8.9332    3.0562 C.ar      1 <0>        -0.0491
     21 C18        -1.9041   -9.7957    4.0132 C.ar      1 <0>        -0.0182
     22 C19        -1.5287  -11.1277    4.0308 C.ar      1 <0>        -0.1419
     23 C20        -0.5976  -11.6198    3.1000 C.ar      1 <0>        -0.0972
     24 C21        -0.0477  -10.8012    2.1668 C.ar      1 <0>        -0.0667
     25 C22        -0.4091   -9.4414    2.1221 C.ar      1 <0>        -0.0225
     26 C23         0.1432   -8.5804    1.1614 C.ar      1 <0>        -0.0403
     27 C24        -2.1122  -12.0413    5.0382 C.cat     1 <0>         0.5992
     28 N3         -1.7549  -13.3238    5.0600 N.pl3     1 <0>        -0.7586
     29 N4         -2.9944  -11.5809    5.9227 N.pl3     1 <0>        -0.7629
     30 H1          3.0137   -6.0728   -2.7941 H         1 <0>         0.0639
     31 H2          4.1725   -5.6555   -4.0792 H         1 <0>         0.0563
     32 H3          4.5755   -6.9207   -2.8938 H         1 <0>         0.0641
     33 H4          4.5991   -5.2214   -1.0881 H         1 <0>         0.0864
     34 H5          6.2860   -4.4358   -3.5075 H         1 <0>         0.0635
     35 H6          6.6373   -4.0207   -1.8126 H         1 <0>         0.0580
     36 H7          6.6865   -5.7196   -2.3415 H         1 <0>         0.0546
     37 H8          4.0708   -0.7190   -2.1048 H         1 <0>         0.0790
     38 H9          4.5536   -0.7480   -3.8132 H         1 <0>         0.0983
     39 H10         2.0655   -0.4595   -3.4117 H         1 <0>         0.0903
     40 H11         2.4973   -1.8340   -4.4571 H         1 <0>         0.0844
     41 H12         2.5232   -5.1492   -0.6555 H         1 <0>         0.1433
     42 H13        -1.1262   -2.9532   -1.0490 H         1 <0>         0.1306
     43 H14        -0.0295   -1.3830   -2.5849 H         1 <0>         0.1344
     44 H15        -0.6973   -4.7138    0.7196 H         1 <0>         0.4113
     45 H16        -1.4421   -5.7124    2.0513 H         1 <0>         0.1395
     46 H17        -2.4232   -7.1812    3.7208 H         1 <0>         0.1469
     47 H18        -2.6198   -9.4227    4.7309 H         1 <0>         0.1448
     48 H19        -0.3156  -12.6620    3.1278 H         1 <0>         0.1386
     49 H20         0.6670  -11.1934    1.4585 H         1 <0>         0.1545
     50 H21         0.8556   -8.9544    0.4411 H         1 <0>         0.1584
     51 H22        -1.1122  -13.6592    4.4156 H         1 <0>         0.4454
     52 H23        -3.2547  -10.6466    5.9068 H         1 <0>         0.4434
     53 H24        -3.3768  -12.1797    6.5830 H         1 <0>         0.4346
     54 H25        -2.1374  -13.9226    5.7203 H         1 <0>         0.4341
@<TRIPOS>BOND
     1    1    2 1
     2    1   30 1
     3    1   31 1
     4    1   32 1
     5    2    3 1
     6    2    4 1
     7    2   33 1
     8    3   34 1
     9    3   35 1
    10    3   36 1
    11    4    9 1
    12    4    5 2
    13    5    6 1
    14    6    7 1
    15    6   37 1
    16    6   38 1
    17    7    8 1
    18    7   39 1
    19    7   40 1
    20    8   13 ar
    21    8    9 ar
    22    9   10 ar
    23   10   11 ar
    24   10   41 1
    25   11   12 ar
    26   11   14 1
    27   12   13 ar
    28   12   42 1
    29   13   43 1
    30   14   15 am
    31   14   44 1
    32   15   16 2
    33   15   17 1
    34   17   26 ar
    35   17   18 ar
    36   18   19 ar
    37   18   45 1
    38   19   20 ar
    39   19   46 1
    40   20   25 ar
    41   20   21 ar
    42   21   22 ar
    43   21   47 1
    44   22   23 ar
    45   22   27 1
    46   23   24 ar
    47   23   48 1
    48   24   25 ar
    49   24   49 1
    50   25   26 ar
    51   26   50 1
    52   27   28 2
    53   27   29 1
    54   28   51 1
    55   28   54 1
    56   29   52 1
    57   29   53 1
@<TRIPOS>MOLECULE
CHEMBL552030
   49    51     0     0     0
SMALL
USER_CHARGES

@<TRIPOS>ATOM
      1 C1          0.3280    0.2207   -1.4395 C.ar      1 <0>        -0.1236
      2 C2          1.4112    1.0570   -1.2441 C.ar      1 <0>        -0.1181
      3 C3          2.6668    0.5220   -1.0247 C.ar      1 <0>        -0.1172
      4 C4          2.8391   -0.8493   -1.0002 C.ar      1 <0>        -0.0839
      5 C5          1.7558   -1.6857   -1.1947 C.ar      1 <0>        -0.1170
      6 C6          0.5004   -1.1506   -1.4155 C.ar      1 <0>        -0.1179
      7 C7          4.2081   -1.4326   -0.7620 C.3       1 <0>        -0.0756
      8 C8          4.4216   -1.6360    0.7393 C.3       1 <0>        -0.1291
      9 C9          5.8115   -2.2281    0.9812 C.3       1 <0>         0.1233
     10 N1          6.0159   -2.4229    2.4187 N.pl3     1 <0>        -0.7038
     11 C10         7.2074   -2.9502    2.8826 C.ar      1 <0>         0.4463
     12 C11         7.4017   -3.1429    4.2649 C.ar      1 <0>         0.0184
     13 N2          8.5413   -3.6477    4.7085 N.ar      1 <0>        -0.2955
     14 C12         9.5045   -3.9737    3.8483 C.ar      1 <0>        -0.1153
     15 C13         9.3102   -3.7814    2.4720 C.ar      1 <0>         0.4587
     16 N3          8.1640   -3.2793    2.0267 N.ar      1 <0>        -0.5715
     17 N4         10.3108   -4.1200    1.5782 N.pl3     1 <0>        -0.8155
     18 C14        10.7770   -4.5368    4.3429 C.2       1 <0>         0.5995
     19 O1         11.6166   -4.9317    3.5528 O.2       1 <0>        -0.5552
     20 N5         11.0086   -4.6136    5.6616 N.2       1 <0>        -0.6730
     21 C15        12.0661   -4.0128    6.1839 C.2       1 <0>         0.6981
     22 N6         12.9700   -3.3942    5.3708 N.pl3     1 <0>        -0.8689
     23 N7         12.2520   -4.0122    7.5353 N.pl3     1 <0>        -0.8258
     24 C16         6.3295   -2.7796    5.2220 C.2       1 <0>        -0.1039
     25 C17         5.9909   -3.4649    6.4748 C.2       1 <0>        -0.1839
     26 C18         4.9598   -2.7844    7.0028 C.2       1 <0>        -0.0333
     27 O2          4.6493   -1.7622    6.1912 O.3       1 <0>        -0.1761
     28 C19         5.4605   -1.7393    5.1239 C.2       1 <0>        -0.0477
     29 H1         -0.6537    0.6387   -1.6065 H         1 <0>         0.1213
     30 H2          1.2766    2.1284   -1.2633 H         1 <0>         0.1218
     31 H3          3.5132    1.1754   -0.8728 H         1 <0>         0.1212
     32 H4          1.8905   -2.7571   -1.1759 H         1 <0>         0.1213
     33 H5         -0.3459   -1.8040   -1.5678 H         1 <0>         0.1219
     34 H6          4.2885   -2.3917   -1.2736 H         1 <0>         0.0771
     35 H7          4.9658   -0.7505   -1.1476 H         1 <0>         0.0770
     36 H8          4.3412   -0.6769    1.2510 H         1 <0>         0.0718
     37 H9          3.6639   -2.3181    1.1250 H         1 <0>         0.0725
     38 H10         5.8919   -3.1872    0.4696 H         1 <0>         0.0714
     39 H11         6.5692   -1.5460    0.5956 H         1 <0>         0.0724
     40 H12         5.3157   -2.1820    3.0452 H         1 <0>         0.4122
     41 H13        11.1135   -4.5636    1.8940 H         1 <0>         0.4263
     42 H14        10.2095   -3.9137    0.6358 H         1 <0>         0.3998
     43 H15        13.0270   -3.5719    7.9181 H         1 <0>         0.4102
     44 H16        12.8000   -3.3284    4.4181 H         1 <0>         0.4189
     45 H17        11.6093   -4.4521    8.1135 H         1 <0>         0.4261
     46 H18        13.7829   -3.0201    5.7454 H         1 <0>         0.4008
     47 H19         6.4723   -4.3390    6.8879 H         1 <0>         0.1561
     48 H20         4.4611   -3.0222    7.9308 H         1 <0>         0.2062
     49 H21         5.4274   -1.0177    4.3210 H         1 <0>         0.2009
@<TRIPOS>BOND
     1    1    6 ar
     2    1    2 ar
     3    1   29 1
     4    2    3 ar
     5    2   30 1
     6    3    4 ar
     7    3   31 1
     8    4    5 ar
     9    4    7 1
    10    5    6 ar
    11    5   32 1
    12    6   33 1
    13    7    8 1
    14    7   34 1
    15    7   35 1
    16    8    9 1
    17    8   36 1
    18    8   37 1
    19    9   10 1
    20    9   38 1
    21    9   39 1
    22   10   11 1
    23   10   40 1
    24   11   16 ar
    25   11   12 ar
    26   12   13 ar
    27   12   24 1
    28   13   14 ar
    29   14   15 ar
    30   14   18 1
    31   15   16 ar
    32   15   17 1
    33   17   41 1
    34   17   42 1
    35   18   20 1
    36   18   19 2
    37   20   21 2
    38   21   22 1
    39   21   23 1
    40   22   44 1
    41   22   46 1
    42   23   45 1
    43   23   43 1
    44   24   28 2
    45   24   25 1
    46   25   26 2
    47   25   47 1
    48   26   27 1
    49   26   48 1
    50   27   28 1
    51   28   49 1
@<TRIPOS>MOLECULE
CHEMBL27852
   78    82     0     0     0
SMALL
USER_CHARGES

@<TRIPOS>ATOM
      1 C1         -0.0167    1.3781    0.0096 C.ar      1 <0>        -0.1009
      2 C2          1.1709    2.0855    0.0021 C.ar      1 <0>        -0.1051
      3 C3          2.3773    1.4107   -0.0130 C.ar      1 <0>        -0.1042
      4 C4          2.3960    0.0285   -0.0201 C.ar      1 <0>        -0.1290
      5 C5          1.2084   -0.6789   -0.0117 C.ar      1 <0>        -0.1416
      6 C6          0.0021   -0.0041    0.0020 C.ar      1 <0>        -0.1064
      7 C7          3.7112   -0.7071   -0.0376 C.3       1 <0>        -0.0877
      8 C8          4.1714   -0.9633    1.3989 C.3       1 <0>         0.0747
      9 C9          4.3721    0.3739    2.1235 C.3       1 <0>        -0.1419
     10 C10         4.8040    0.0705    3.5593 C.3       1 <0>        -0.1274
     11 C11         6.0434   -0.7902    3.5895 C.3       1 <0>         0.0506
     12 C12         7.2874   -0.0577    3.0511 C.3       1 <0>        -0.1522
     13 C13         8.2641   -1.2322    2.7893 C.3       1 <0>        -0.1496
     14 C14         7.3671   -2.4794    2.6602 C.3       1 <0>         0.0468
     15 H1          7.5349   -2.9619    1.6973 H         1 <0>         0.1141
     16 N1          5.9574   -2.0024    2.7536 N.3       1 <0>        -0.4839
     17 C15         5.5033   -1.7083    1.3870 C.3       1 <0>         0.0152
     18 C16         7.6615   -3.4450    3.7792 C.2       1 <0>         0.5271
     19 O1          6.7908   -3.7402    4.5701 O.2       1 <0>        -0.5065
     20 N2          8.8924   -3.9804    3.9009 N.am      1 <0>        -0.7190
     21 C17         9.1786   -4.9190    4.9887 C.3       1 <0>         0.1314
     22 H2          8.2954   -5.5266    5.1861 H         1 <0>         0.1337
     23 C18        10.3425   -5.8267    4.5860 C.3       1 <0>        -0.1215
     24 C19         9.9234   -6.6975    3.3998 C.3       1 <0>        -0.1278
     25 C20        11.0874   -7.6052    2.9971 C.3       1 <0>         0.0915
     26 N3         10.6861   -8.4390    1.8613 N.pl3     1 <0>        -0.6965
     27 C21        11.5693   -9.3353    1.3250 C.cat     1 <0>         0.7426
     28 N4         11.2045  -10.0933    0.2924 N.pl3     1 <0>        -0.7934
     29 N5         12.7942   -9.4501    1.8355 N.pl3     1 <0>        -0.7916
     30 C22         9.5476   -4.1504    6.2313 C.2       1 <0>         0.4418
     31 O2          9.8351   -2.9750    6.1542 O.2       1 <0>        -0.4087
     32 C23         9.5589   -4.8261    7.5377 C.2       1 <0>         0.0353
     33 N6          9.2857   -6.0825    7.8211 N.2       1 <0>        -0.4378
     34 C24         9.3347   -6.5710    9.0624 C.ar      1 <0>         0.0529
     35 C25         9.0647   -7.8954    9.4955 C.ar      1 <0>        -0.0420
     36 C26         9.1609   -8.2305   10.8072 C.ar      1 <0>        -0.1143
     37 C27         9.5239   -7.3014   11.7759 C.ar      1 <0>        -0.0606
     38 C28         9.7959   -6.0011   11.4005 C.ar      1 <0>        -0.0765
     39 C29         9.7030   -5.6469   10.0749 C.ar      1 <0>        -0.1266
     40 S1          9.9548   -4.1534    9.1463 S.3       1 <0>         0.0801
     41 N7          3.1629   -1.7638    2.1062 N.4       1 <0>        -0.6291
     42 H3         -0.9591    1.9053    0.0259 H         1 <0>         0.1334
     43 H4          1.1563    3.1654    0.0076 H         1 <0>         0.1334
     44 H5          3.3051    1.9634   -0.0196 H         1 <0>         0.1290
     45 H6          1.2231   -1.7588   -0.0176 H         1 <0>         0.1222
     46 H7         -0.9258   -0.5567    0.0082 H         1 <0>         0.1326
     47 H8          3.5884   -1.6586   -0.5549 H         1 <0>         0.1000
     48 H9          4.4573   -0.1052   -0.5563 H         1 <0>         0.1186
     49 H10         5.1460    0.9535    1.6202 H         1 <0>         0.1129
     50 H11         3.4368    0.9337    2.1302 H         1 <0>         0.1026
     51 H12         5.0081    1.0082    4.0761 H         1 <0>         0.1046
     52 H13         3.9955   -0.4499    4.0727 H         1 <0>         0.0695
     53 H14         6.2452   -1.0850    4.6193 H         1 <0>         0.1069
     54 H15         7.0578    0.4713    2.1261 H         1 <0>         0.0775
     55 H16         7.6911    0.6252    3.7986 H         1 <0>         0.0912
     56 H17         8.8166   -1.0661    1.8645 H         1 <0>         0.0881
     57 H18         8.9522   -1.3461    3.6269 H         1 <0>         0.0897
     58 H19         5.3848   -2.6439    0.8404 H         1 <0>         0.1044
     59 H20         6.2518   -1.0947    0.8857 H         1 <0>         0.0901
     60 H21         9.5887   -3.7442    3.2683 H         1 <0>         0.4069
     61 H22        11.1992   -5.2151    4.3030 H         1 <0>         0.0872
     62 H23        10.6136   -6.4647    5.4272 H         1 <0>         0.1041
     63 H24         9.0667   -7.3091    3.6828 H         1 <0>         0.0900
     64 H25         9.6524   -6.0595    2.5586 H         1 <0>         0.0838
     65 H26        11.9441   -6.9936    2.7141 H         1 <0>         0.0946
     66 H27        11.3584   -8.2432    3.8383 H         1 <0>         0.0963
     67 H28         9.7941   -8.3554    1.4895 H         1 <0>         0.4349
     68 H29        10.3125  -10.0097   -0.0794 H         1 <0>         0.4407
     69 H30        13.0599   -8.8981    2.5876 H         1 <0>         0.4400
     70 H31        13.4205  -10.0857    1.4553 H         1 <0>         0.4425
     71 H32         8.7790   -8.6453    8.7728 H         1 <0>         0.1370
     72 H33         8.9493   -9.2464   11.1067 H         1 <0>         0.1427
     73 H34         9.5922   -7.5945   12.8131 H         1 <0>         0.1491
     74 H35        10.0788   -5.2681   12.1415 H         1 <0>         0.1430
     75 H36         3.0404   -2.6458    1.6318 H         1 <0>         0.4316
     76 H37         3.4695   -1.9307    3.0529 H         1 <0>         0.4394
     77 H38        11.8308  -10.7289   -0.0879 H         1 <0>         0.4428
     78 H39         2.2862   -1.2645    2.1198 H         1 <0>         0.4309
@<TRIPOS>BOND
     1    1    6 ar
     2    1    2 ar
     3    1   42 1
     4    2    3 ar
     5    2   43 1
     6    3    4 ar
     7    3   44 1
     8    4    5 ar
     9    4    7 1
    10    5    6 ar
    11    5   45 1
    12    6   46 1
    13    7    8 1
    14    7   47 1
    15    7   48 1
    16    8   17 1
    17    8    9 1
    18    8   41 1
    19    9   10 1
    20    9   49 1
    21    9   50 1
    22   10   11 1
    23   10   51 1
    24   10   52 1
    25   11   16 1
    26   11   12 1
    27   11   53 1
    28   12   13 1
    29   12   54 1
    30   12   55 1
    31   13   14 1
    32   13   56 1
    33   13   57 1
    34   14   15 1
    35   14   16 1
    36   14   18 1
    37   16   17 1
    38   17   58 1
    39   17   59 1
    40   18   19 2
    41   18   20 am
    42   20   21 1
    43   20   60 1
    44   21   22 1
    45   21   23 1
    46   21   30 1
    47   23   24 1
    48   23   61 1
    49   23   62 1
    50   24   25 1
    51   24   63 1
    52   24   64 1
    53   25   26 1
    54   25   65 1
    55   25   66 1
    56   26   27 1
    57   26   67 1
    58   27   28 2
    59   27   29 1
    60   28   68 1
    61   28   77 1
    62   29   69 1
    63   29   70 1
    64   30   31 2
    65   30   32 1
    66   32   40 1
    67   32   33 2
    68   33   34 1
    69   34   39 ar
    70   34   35 ar
    71   35   36 ar
    72   35   71 1
    73   36   37 ar
    74   36   72 1
    75   37   38 ar
    76   37   73 1
    77   38   39 ar
    78   38   74 1
    79   39   40 1
    80   41   75 1
    81   41   76 1
    82   41   78 1
@<TRIPOS>MOLECULE
CHEMBL27852__1
   78    82     0     0     0
SMALL
USER_CHARGES

@<TRIPOS>ATOM
      1 C1         -0.0167    1.3781    0.0096 C.ar      1 <0>        -0.1089
      2 C2          1.1709    2.0855    0.0021 C.ar      1 <0>        -0.1116
      3 C3          2.3773    1.4107   -0.0130 C.ar      1 <0>        -0.1126
      4 C4          2.3960    0.0285   -0.0201 C.ar      1 <0>        -0.1012
      5 C5          1.2084   -0.6789   -0.0117 C.ar      1 <0>        -0.1224
      6 C6          0.0021   -0.0041    0.0020 C.ar      1 <0>        -0.1110
      7 C7          3.7112   -0.7071   -0.0376 C.3       1 <0>        -0.1021
      8 C8          4.1714   -0.9633    1.3989 C.3       1 <0>         0.1083
      9 C9          4.3725    0.3739    2.1235 C.3       1 <0>        -0.1230
     10 C10         4.8218    0.0702    3.5540 C.3       1 <0>        -0.1248
     11 C11         6.0588   -0.7946    3.5685 C.3       1 <0>         0.0367
     12 C12         7.2926   -0.0744    2.9913 C.3       1 <0>        -0.1401
     13 C13         8.2588   -1.2561    2.7227 C.3       1 <0>        -0.1400
     14 C14         7.3547   -2.5015    2.6313 C.3       1 <0>         0.0022
     15 H1          7.4976   -2.9970    1.6710 H         1 <0>         0.1647
     16 N1          5.9496   -2.0178    2.7521 N.4       1 <0>        -0.3599
     17 C15         5.5033   -1.7083    1.3870 C.3       1 <0>         0.0053
     18 C16         7.6724   -3.4536    3.7554 C.2       1 <0>         0.5136
     19 O1          6.8198   -3.7354    4.5707 O.2       1 <0>        -0.5093
     20 N2          8.9039   -3.9920    3.8547 N.am      1 <0>        -0.6971
     21 C17         9.2127   -4.9176    4.9475 C.3       1 <0>         0.1266
     22 H2          8.3324   -5.5192    5.1738 H         1 <0>         0.1403
     23 C18        10.3636   -5.8349    4.5290 C.3       1 <0>        -0.1229
     24 C19         9.9133   -6.7193    3.3646 C.3       1 <0>        -0.1296
     25 C20        11.0641   -7.6365    2.9461 C.3       1 <0>         0.0918
     26 N3         10.6330   -8.4834    1.8311 N.pl3     1 <0>        -0.6984
     27 C21        11.5000   -9.3899    1.2857 C.cat     1 <0>         0.7434
     28 N4         11.1080  -10.1598    0.2720 N.pl3     1 <0>        -0.7922
     29 N5         12.7363   -9.5027    1.7683 N.pl3     1 <0>        -0.7910
     30 C22         9.6140   -4.1344    6.1709 C.2       1 <0>         0.4453
     31 O2          9.9037   -2.9612    6.0716 O.2       1 <0>        -0.4104
     32 C23         9.6542   -4.7932    7.4853 C.2       1 <0>         0.0233
     33 N6          9.3835   -6.0448    7.7915 N.2       1 <0>        -0.4344
     34 C24         9.4603   -6.5174    9.0375 C.ar      1 <0>         0.0508
     35 C25         9.1962   -7.8351    9.4941 C.ar      1 <0>        -0.0400
     36 C26         9.3225   -8.1536   10.8074 C.ar      1 <0>        -0.1138
     37 C27         9.7118   -7.2134   11.7550 C.ar      1 <0>        -0.0559
     38 C28         9.9792   -5.9190   11.3563 C.ar      1 <0>        -0.0777
     39 C29         9.8559   -5.5816   10.0288 C.ar      1 <0>        -0.1238
     40 S1         10.0907   -4.1013    9.0751 S.3       1 <0>         0.0887
     41 N7          3.1629   -1.7636    2.1063 N.3       1 <0>        -0.8474
     42 H3         -0.9591    1.9053    0.0259 H         1 <0>         0.1286
     43 H4          1.1563    3.1654    0.0076 H         1 <0>         0.1281
     44 H5          3.3051    1.9634   -0.0196 H         1 <0>         0.1224
     45 H6          1.2231   -1.7588   -0.0176 H         1 <0>         0.1181
     46 H7         -0.9258   -0.5567    0.0082 H         1 <0>         0.1274
     47 H8          3.5884   -1.6586   -0.5549 H         1 <0>         0.0815
     48 H9          4.4573   -0.1052   -0.5563 H         1 <0>         0.0873
     49 H10         5.1376    0.9587    1.6128 H         1 <0>         0.0852
     50 H11         3.4342    0.9285    2.1414 H         1 <0>         0.1006
     51 H12         5.0356    1.0076    4.0675 H         1 <0>         0.1083
     52 H13         4.0183   -0.4474    4.0781 H         1 <0>         0.1013
     53 H14         6.2829   -1.0755    4.5975 H         1 <0>         0.1326
     54 H15         7.0434    0.4431    2.0649 H         1 <0>         0.1036
     55 H16         7.7161    0.6169    3.7199 H         1 <0>         0.1231
     56 H17         8.7901   -1.1044    1.7831 H         1 <0>         0.1184
     57 H18         8.9659   -1.3613    3.5455 H         1 <0>         0.1128
     58 H19         5.3880   -2.6377    0.8293 H         1 <0>         0.1252
     59 H20         6.2547   -1.0893    0.8969 H         1 <0>         0.1350
     60 H21         9.5858   -3.7667    3.2027 H         1 <0>         0.4153
     61 H22        11.2154   -5.2302    4.2178 H         1 <0>         0.0909
     62 H23        10.6524   -6.4630    5.3717 H         1 <0>         0.1098
     63 H24         9.0615   -7.3239    3.6758 H         1 <0>         0.0918
     64 H25         9.6244   -6.0912    2.5218 H         1 <0>         0.0822
     65 H26        11.9159   -7.0319    2.6349 H         1 <0>         0.0953
     66 H27        11.3530   -8.2646    3.7888 H         1 <0>         0.0973
     67 H28         9.7326   -8.4012    1.4796 H         1 <0>         0.4348
     68 H29        10.2077  -10.0777   -0.0795 H         1 <0>         0.4411
     69 H30        13.0218   -8.9420    2.5066 H         1 <0>         0.4398
     70 H31        13.3512  -10.1455    1.3816 H         1 <0>         0.4432
     71 H32         8.8907   -8.5932    8.7882 H         1 <0>         0.1378
     72 H33         9.1146   -9.1646   11.1251 H         1 <0>         0.1441
     73 H34         9.8038   -7.4933   12.7940 H         1 <0>         0.1506
     74 H35        10.2822   -5.1776   12.0808 H         1 <0>         0.1443
     75 H36         2.2752   -1.2847    2.1335 H         1 <0>         0.3708
     76 H37         3.0682   -2.6772    1.6887 H         1 <0>         0.3468
     77 H38        11.7229  -10.8027   -0.1148 H         1 <0>         0.4436
     78 H39         5.3596   -2.7049    3.1969 H         1 <0>         0.4414
@<TRIPOS>BOND
     1    1    6 ar
     2    1    2 ar
     3    1   42 1
     4    2    3 ar
     5    2   43 1
     6    3    4 ar
     7    3   44 1
     8    4    5 ar
     9    4    7 1
    10    5    6 ar
    11    5   45 1
    12    6   46 1
    13    7    8 1
    14    7   47 1
    15    7   48 1
    16    8   17 1
    17    8    9 1
    18    8   41 1
    19    9   10 1
    20    9   49 1
    21    9   50 1
    22   10   11 1
    23   10   51 1
    24   10   52 1
    25   11   16 1
    26   11   12 1
    27   11   53 1
    28   12   13 1
    29   12   54 1
    30   12   55 1
    31   13   14 1
    32   13   56 1
    33   13   57 1
    34   14   15 1
    35   14   16 1
    36   14   18 1
    37   16   17 1
    38   16   78 1
    39   17   58 1
    40   17   59 1
    41   18   19 2
    42   18   20 am
    43   20   21 1
    44   20   60 1
    45   21   22 1
    46   21   23 1
    47   21   30 1
    48   23   24 1
    49   23   61 1
    50   23   62 1
    51   24   25 1
    52   24   63 1
    53   24   64 1
    54   25   26 1
    55   25   65 1
    56   25   66 1
    57   26   27 1
    58   26   67 1
    59   27   28 2
    60   27   29 1
    61   28   68 1
    62   28   77 1
    63   29   69 1
    64   29   70 1
    65   30   31 2
    66   30   32 1
    67   32   40 1
    68   32   33 2
    69   33   34 1
    70   34   39 ar
    71   34   35 ar
    72   35   36 ar
    73   35   71 1
    74   36   37 ar
    75   36   72 1
    76   37   38 ar
    77   37   73 1
    78   38   39 ar
    79   38   74 1
    80   39   40 1
    81   41   75 1
    82   41   76 1
@<TRIPOS>MOLECULE
CHEMBL27852__2
   78    82     0     0     0
SMALL
USER_CHARGES

@<TRIPOS>ATOM
      1 C1         -0.0167    1.3781    0.0096 C.ar      1 <0>        -0.1013
      2 C2          1.1709    2.0855    0.0021 C.ar      1 <0>        -0.1053
      3 C3          2.3773    1.4107   -0.0130 C.ar      1 <0>        -0.1037
      4 C4          2.3960    0.0285   -0.0201 C.ar      1 <0>        -0.1279
      5 C5          1.2084   -0.6789   -0.0117 C.ar      1 <0>        -0.1418
      6 C6          0.0021   -0.0041    0.0020 C.ar      1 <0>        -0.1063
      7 C7          3.7112   -0.7071   -0.0376 C.3       1 <0>        -0.0911
      8 C8          4.1714   -0.9633    1.3989 C.3       1 <0>         0.0820
      9 C9          4.3140    0.3723    2.1278 C.3       1 <0>        -0.1427
     10 C10         4.9130    0.1636    3.5271 C.3       1 <0>        -0.1196
     11 C11         6.2430   -0.5598    3.3556 C.3       1 <0>         0.0631
     12 C12         6.9012   -0.9471    4.6920 C.3       1 <0>        -0.1161
     13 C13         7.7887   -2.1534    4.2799 C.3       1 <0>        -0.1255
     14 C14         7.1533   -2.6906    2.9745 C.3       1 <0>         0.0697
     15 H1          7.8462   -2.5690    2.1419 H         1 <0>         0.0861
     16 N1          5.9512   -1.8865    2.7516 N.3       1 <0>        -0.5355
     17 C15         5.5120   -1.7132    1.3750 C.3       1 <0>         0.0467
     18 C16         6.7857   -4.1431    3.1355 C.2       1 <0>         0.5307
     19 O1          5.6280   -4.4904    3.0354 O.2       1 <0>        -0.5241
     20 N2          7.7435   -5.0564    3.3907 N.am      1 <0>        -0.7165
     21 C17         7.3861   -6.4685    3.5472 C.3       1 <0>         0.1315
     22 H2          6.5631   -6.7116    2.8751 H         1 <0>         0.1326
     23 C18         8.5961   -7.3414    3.2083 C.3       1 <0>        -0.1224
     24 C19         8.9471   -7.1743    1.7285 C.3       1 <0>        -0.1276
     25 C20        10.1571   -8.0472    1.3897 C.3       1 <0>         0.0916
     26 N3         10.4932   -7.8872   -0.0272 N.pl3     1 <0>        -0.6970
     27 C21        11.5477   -8.5751   -0.5619 C.cat     1 <0>         0.7429
     28 N4         11.8533   -8.4296   -1.8502 N.pl3     1 <0>        -0.7932
     29 N5         12.2690   -9.3904    0.2057 N.pl3     1 <0>        -0.7913
     30 C22         6.9645   -6.7251    4.9711 C.2       1 <0>         0.4408
     31 O2          7.2143   -5.9103    5.8336 O.2       1 <0>        -0.4061
     32 C23         6.2500   -7.9641    5.3146 C.2       1 <0>         0.0344
     33 N6          5.8970   -8.9599    4.5289 N.2       1 <0>        -0.4385
     34 C24         5.2456  -10.0365    4.9743 C.ar      1 <0>         0.0526
     35 C25         4.8121  -11.1679    4.2351 C.ar      1 <0>        -0.0425
     36 C26         4.1555  -12.1868    4.8458 C.ar      1 <0>        -0.1140
     37 C27         3.8804  -12.1683    6.2086 C.ar      1 <0>        -0.0603
     38 C28         4.2833  -11.0878    6.9675 C.ar      1 <0>        -0.0764
     39 C29         4.9500  -10.0481    6.3625 C.ar      1 <0>        -0.1269
     40 S1          5.6454   -8.5067    6.9072 S.3       1 <0>         0.0818
     41 N7          3.1688   -1.7859    2.0890 N.4       1 <0>        -0.6276
     42 H3         -0.9591    1.9053    0.0259 H         1 <0>         0.1332
     43 H4          1.1563    3.1654    0.0076 H         1 <0>         0.1332
     44 H5          3.3051    1.9634   -0.0196 H         1 <0>         0.1286
     45 H6          1.2231   -1.7588   -0.0176 H         1 <0>         0.1216
     46 H7         -0.9258   -0.5567    0.0082 H         1 <0>         0.1323
     47 H8          3.5884   -1.6586   -0.5549 H         1 <0>         0.0983
     48 H9          4.4573   -0.1052   -0.5563 H         1 <0>         0.1176
     49 H10         4.9667    1.0282    1.5517 H         1 <0>         0.1092
     50 H11         3.3323    0.8365    2.2228 H         1 <0>         0.0972
     51 H12         5.0761    1.1285    4.0073 H         1 <0>         0.1001
     52 H13         4.2379   -0.4419    4.1318 H         1 <0>         0.0746
     53 H14         6.9218    0.0168    2.7273 H         1 <0>         0.0766
     54 H15         7.5106   -0.1293    5.0768 H         1 <0>         0.0888
     55 H16         6.1505   -1.2481    5.4226 H         1 <0>         0.0845
     56 H17         8.8119   -1.8256    4.0962 H         1 <0>         0.0876
     57 H18         7.7690   -2.9202    5.0543 H         1 <0>         0.0891
     58 H19         5.3814   -2.6875    0.9040 H         1 <0>         0.1012
     59 H20         6.2502   -1.1317    0.8227 H         1 <0>         0.0831
     60 H21         8.6694   -4.7787    3.4707 H         1 <0>         0.4087
     61 H22         9.4458   -7.0378    3.8198 H         1 <0>         0.0880
     62 H23         8.3584   -8.3859    3.4097 H         1 <0>         0.1043
     63 H24         8.0974   -7.4779    1.1170 H         1 <0>         0.0891
     64 H25         9.1848   -6.1297    1.5272 H         1 <0>         0.0835
     65 H26        11.0068   -7.7435    2.0012 H         1 <0>         0.0950
     66 H27         9.9194   -9.0917    1.5910 H         1 <0>         0.0963
     67 H28         9.9680   -7.2934   -0.5862 H         1 <0>         0.4346
     68 H29        11.3280   -7.8359   -2.4092 H         1 <0>         0.4408
     69 H30        12.0464   -9.4963    1.1438 H         1 <0>         0.4399
     70 H31        13.0167   -9.8782   -0.1735 H         1 <0>         0.4427
     71 H32         5.0066  -11.2186    3.1740 H         1 <0>         0.1367
     72 H33         3.8379  -13.0347    4.2572 H         1 <0>         0.1428
     73 H34         3.3556  -12.9921    6.6695 H         1 <0>         0.1493
     74 H35         4.0765  -11.0590    8.0271 H         1 <0>         0.1433
     75 H36         3.0645   -2.6652    1.6053 H         1 <0>         0.4309
     76 H37         3.4689   -1.9570    3.0370 H         1 <0>         0.4406
     77 H38        12.6011   -8.9174   -2.2293 H         1 <0>         0.4430
     78 H39         2.2843   -1.3004    2.0986 H         1 <0>         0.4284
@<TRIPOS>BOND
     1    1    6 ar
     2    1    2 ar
     3    1   42 1
     4    2    3 ar
     5    2   43 1
     6    3    4 ar
     7    3   44 1
     8    4    5 ar
     9    4    7 1
    10    5    6 ar
    11    5   45 1
    12    6   46 1
    13    7    8 1
    14    7   47 1
    15    7   48 1
    16    8   17 1
    17    8    9 1
    18    8   41 1
    19    9   10 1
    20    9   49 1
    21    9   50 1
    22   10   11 1
    23   10   51 1
    24   10   52 1
    25   11   16 1
    26   11   12 1
    27   11   53 1
    28   12   13 1
    29   12   54 1
    30   12   55 1
    31   13   14 1
    32   13   56 1
    33   13   57 1
    34   14   15 1
    35   14   16 1
    36   14   18 1
    37   16   17 1
    38   17   58 1
    39   17   59 1
    40   18   19 2
    41   18   20 am
    42   20   21 1
    43   20   60 1
    44   21   22 1
    45   21   23 1
    46   21   30 1
    47   23   24 1
    48   23   61 1
    49   23   62 1
    50   24   25 1
    51   24   63 1
    52   24   64 1
    53   25   26 1
    54   25   65 1
    55   25   66 1
    56   26   27 1
    57   26   67 1
    58   27   28 2
    59   27   29 1
    60   28   68 1
    61   28   77 1
    62   29   69 1
    63   29   70 1
    64   30   31 2
    65   30   32 1
    66   32   40 1
    67   32   33 2
    68   33   34 1
    69   34   39 ar
    70   34   35 ar
    71   35   36 ar
    72   35   71 1
    73   36   37 ar
    74   36   72 1
    75   37   38 ar
    76   37   73 1
    77   38   39 ar
    78   38   74 1
    79   39   40 1
    80   41   75 1
    81   41   76 1
    82   41   78 1
@<TRIPOS>MOLECULE
CHEMBL27852__3
   78    82     0     0     0
SMALL
USER_CHARGES

@<TRIPOS>ATOM
      1 C1         -0.0167    1.3781    0.0096 C.ar      1 <0>        -0.1090
      2 C2          1.1709    2.0855    0.0021 C.ar      1 <0>        -0.1119
      3 C3          2.3773    1.4107   -0.0130 C.ar      1 <0>        -0.1131
      4 C4          2.3960    0.0285   -0.0201 C.ar      1 <0>        -0.1014
      5 C5          1.2084   -0.6789   -0.0117 C.ar      1 <0>        -0.1221
      6 C6          0.0021   -0.0041    0.0020 C.ar      1 <0>        -0.1105
      7 C7          3.7112   -0.7071   -0.0376 C.3       1 <0>        -0.1030
      8 C8          4.1714   -0.9633    1.3989 C.3       1 <0>         0.1068
      9 C9          4.3103    0.3725    2.1283 C.3       1 <0>        -0.1255
     10 C10         4.9295    0.1659    3.5200 C.3       1 <0>        -0.1329
     11 C11         6.2486   -0.5675    3.3280 C.3       1 <0>         0.0363
     12 C12         6.9836   -0.8928    4.6319 C.3       1 <0>        -0.1408
     13 C13         7.6586   -2.2604    4.3534 C.3       1 <0>        -0.1379
     14 C14         7.1988   -2.6486    2.9225 C.3       1 <0>         0.0052
     15 H1          7.9347   -2.3315    2.1835 H         1 <0>         0.1648
     16 N1          5.9406   -1.9045    2.7533 N.4       1 <0>        -0.3722
     17 C15         5.5119   -1.7131    1.3742 C.3       1 <0>         0.0108
     18 C16         6.9584   -4.1332    2.8266 C.2       1 <0>         0.5146
     19 O1          5.8534   -4.5522    2.5540 O.2       1 <0>        -0.5070
     20 N2          7.9713   -4.9953    3.0437 N.am      1 <0>        -0.6970
     21 C17         7.7376   -6.4385    2.9505 C.3       1 <0>         0.1274
     22 H2          7.0073   -6.6384    2.1664 H         1 <0>         0.1396
     23 C18         9.0517   -7.1474    2.6163 C.3       1 <0>        -0.1231
     24 C19         9.5204   -6.7225    1.2232 C.3       1 <0>        -0.1293
     25 C20        10.8344   -7.4313    0.8890 C.3       1 <0>         0.0917
     26 N3         11.2832   -7.0245   -0.4449 N.pl3     1 <0>        -0.6984
     27 C21        12.4436   -7.5330   -0.9608 C.cat     1 <0>         0.7435
     28 N4         12.8516   -7.1631   -2.1735 N.pl3     1 <0>        -0.7922
     29 N5         13.1654   -8.3981   -0.2504 N.pl3     1 <0>        -0.7909
     30 C22         7.2127   -6.9485    4.2678 C.2       1 <0>         0.4445
     31 O2          7.3027   -6.2617    5.2631 O.2       1 <0>        -0.4093
     32 C23         6.5912   -8.2793    4.3463 C.2       1 <0>         0.0241
     33 N6          6.4092   -9.1646    3.3888 N.2       1 <0>        -0.4350
     34 C24         5.8252  -10.3464    3.5982 C.ar      1 <0>         0.0509
     35 C25         5.5720  -11.3790    2.6578 C.ar      1 <0>        -0.0405
     36 C26         4.9622  -12.5304    3.0377 C.ar      1 <0>        -0.1138
     37 C27         4.5618  -12.7483    4.3513 C.ar      1 <0>        -0.0564
     38 C28         4.7877  -11.7714    5.3003 C.ar      1 <0>        -0.0775
     39 C29         5.4050  -10.5996    4.9302 C.ar      1 <0>        -0.1243
     40 S1          5.8966   -9.1120    5.7678 S.3       1 <0>         0.0894
     41 N7          3.1692   -1.7873    2.0878 N.3       1 <0>        -0.8497
     42 H3         -0.9591    1.9053    0.0259 H         1 <0>         0.1286
     43 H4          1.1563    3.1654    0.0076 H         1 <0>         0.1280
     44 H5          3.3051    1.9634   -0.0196 H         1 <0>         0.1217
     45 H6          1.2231   -1.7588   -0.0176 H         1 <0>         0.1186
     46 H7         -0.9258   -0.5567    0.0082 H         1 <0>         0.1276
     47 H8          3.5884   -1.6586   -0.5549 H         1 <0>         0.0821
     48 H9          4.4573   -0.1052   -0.5563 H         1 <0>         0.0861
     49 H10         4.9495    1.0356    1.5453 H         1 <0>         0.0856
     50 H11         3.3256    0.8270    2.2367 H         1 <0>         0.1008
     51 H12         5.1080    1.1315    3.9930 H         1 <0>         0.1148
     52 H13         4.2599   -0.4321    4.1382 H         1 <0>         0.0999
     53 H14         6.8915   -0.0076    2.6488 H         1 <0>         0.1402
     54 H15         7.7349   -0.1328    4.8466 H         1 <0>         0.1210
     55 H16         6.2771   -0.9768    5.4577 H         1 <0>         0.1067
     56 H17         8.7435   -2.1620    4.3893 H         1 <0>         0.1216
     57 H18         7.3204   -3.0041    5.0750 H         1 <0>         0.1086
     58 H19         5.3845   -2.6811    0.8896 H         1 <0>         0.1295
     59 H20         6.2542   -1.1245    0.8352 H         1 <0>         0.1315
     60 H21         8.8551   -4.6602    3.2617 H         1 <0>         0.4148
     61 H22         9.8083   -6.8763    3.3526 H         1 <0>         0.0909
     62 H23         8.8973   -8.2263    2.6343 H         1 <0>         0.1095
     63 H24         8.7638   -6.9936    0.4869 H         1 <0>         0.0913
     64 H25         9.6748   -5.6436    1.2052 H         1 <0>         0.0822
     65 H26        11.5910   -7.1603    1.6253 H         1 <0>         0.0953
     66 H27        10.6800   -8.5102    0.9070 H         1 <0>         0.0972
     67 H28        10.7576   -6.3944   -0.9623 H         1 <0>         0.4347
     68 H29        12.3260   -6.5330   -2.6909 H         1 <0>         0.4411
     69 H30        12.8682   -8.6675    0.6328 H         1 <0>         0.4398
     70 H31        13.9882   -8.7587   -0.6162 H         1 <0>         0.4432
     71 H32         5.8678  -11.2467    1.6276 H         1 <0>         0.1375
     72 H33         4.7829  -13.2982    2.2997 H         1 <0>         0.1439
     73 H34         4.0777  -13.6736    4.6268 H         1 <0>         0.1504
     74 H35         4.4820  -11.9260    6.3245 H         1 <0>         0.1443
     75 H36         2.2734   -1.3234    2.1105 H         1 <0>         0.3700
     76 H37         3.0940   -2.6981    1.6602 H         1 <0>         0.3522
     77 H38        13.6744   -7.5237   -2.5393 H         1 <0>         0.4436
     78 H39         5.2070   -2.3461    3.2870 H         1 <0>         0.4405
@<TRIPOS>BOND
     1    1    6 ar
     2    1    2 ar
     3    1   42 1
     4    2    3 ar
     5    2   43 1
     6    3    4 ar
     7    3   44 1
     8    4    5 ar
     9    4    7 1
    10    5    6 ar
    11    5   45 1
    12    6   46 1
    13    7    8 1
    14    7   47 1
    15    7   48 1
    16    8   17 1
    17    8    9 1
    18    8   41 1
    19    9   10 1
    20    9   49 1
    21    9   50 1
    22   10   11 1
    23   10   51 1
    24   10   52 1
    25   11   16 1
    26   11   12 1
    27   11   53 1
    28   12   13 1
    29   12   54 1
    30   12   55 1
    31   13   14 1
    32   13   56 1
    33   13   57 1
    34   14   15 1
    35   14   16 1
    36   14   18 1
    37   16   17 1
    38   16   78 1
    39   17   58 1
    40   17   59 1
    41   18   19 2
    42   18   20 am
    43   20   21 1
    44   20   60 1
    45   21   22 1
    46   21   23 1
    47   21   30 1
    48   23   24 1
    49   23   61 1
    50   23   62 1
    51   24   25 1
    52   24   63 1
    53   24   64 1
    54   25   26 1
    55   25   65 1
    56   25   66 1
    57   26   27 1
    58   26   67 1
    59   27   28 2
    60   27   29 1
    61   28   68 1
    62   28   77 1
    63   29   69 1
    64   29   70 1
    65   30   31 2
    66   30   32 1
    67   32   40 1
    68   32   33 2
    69   33   34 1
    70   34   39 ar
    71   34   35 ar
    72   35   36 ar
    73   35   71 1
    74   36   37 ar
    75   36   72 1
    76   37   38 ar
    77   37   73 1
    78   38   39 ar
    79   38   74 1
    80   39   40 1
    81   41   75 1
    82   41   76 1
@<TRIPOS>MOLECULE
CHEMBL173681
   48    51     0     0     0
SMALL
USER_CHARGES

@<TRIPOS>ATOM
      1 C1          1.7309    1.6758    1.6761 C.3       1 <0>        -0.2210
      2 S1          1.0883    0.0300    1.2646 S.3       1 <0>         0.1734
      3 C2          0.8089    0.1039   -0.4736 C.2       1 <0>        -0.0856
      4 C3          0.3117   -0.8832   -1.3227 C.2       1 <0>        -0.0800
      5 C4          0.1806   -0.5877   -2.6617 C.2       1 <0>         0.0212
      6 C5          0.5472    0.6720   -3.1024 C.2       1 <0>        -0.3234
      7 S2          1.0829    1.4645   -1.5958 S.3       1 <0>         0.1778
      8 C6          0.5013    1.2176   -4.4586 C.cat     1 <0>         0.6518
      9 N1          0.9036    2.4737   -4.6888 N.pl3     1 <0>        -0.7729
     10 N2          0.0568    0.4610   -5.4699 N.pl3     1 <0>        -0.7665
     11 C7         -0.0663   -2.2189   -0.7976 C.2       1 <0>         0.1538
     12 C8         -0.5504   -3.2006   -1.6150 C.2       1 <0>        -0.2763
     13 S3         -0.8102   -4.5174   -0.4379 S.3       1 <0>         0.1496
     14 C9         -0.2900   -3.7077    0.9422 C.2       1 <0>         0.3222
     15 N3          0.0540   -2.5220    0.4894 N.2       1 <0>        -0.5790
     16 N4         -0.2327   -4.1796    2.2443 N.pl3     1 <0>        -0.6127
     17 C10        -0.7867   -5.4250    2.5625 C.ar      1 <0>         0.1087
     18 C11        -1.5358   -5.5763    3.7221 C.ar      1 <0>        -0.0891
     19 C12        -2.0820   -6.8053    4.0353 C.ar      1 <0>        -0.1648
     20 C13        -1.8822   -7.8888    3.1921 C.ar      1 <0>         0.1224
     21 C14        -1.1340   -7.7384    2.0334 C.ar      1 <0>        -0.1129
     22 C15        -0.5923   -6.5086    1.7157 C.ar      1 <0>        -0.1083
     23 O1         -2.4197   -9.0988    3.5016 O.3       1 <0>        -0.2535
     24 C16        -3.2663   -9.1683    4.5621 C.ar      1 <0>         0.0756
     25 C17        -4.5665   -8.6980    4.4455 C.ar      1 <0>        -0.1324
     26 C18        -5.4251   -8.7698    5.5252 C.ar      1 <0>        -0.1047
     27 C19        -4.9898   -9.3094    6.7216 C.ar      1 <0>        -0.1142
     28 C20        -3.6947   -9.7788    6.8405 C.ar      1 <0>        -0.1037
     29 C21        -2.8338   -9.7150    5.7620 C.ar      1 <0>        -0.1203
     30 H1          2.6506    1.8563    1.1196 H         1 <0>         0.0953
     31 H2          0.9914    2.4313    1.4107 H         1 <0>         0.0952
     32 H3          1.9368    1.7285    2.7452 H         1 <0>         0.1306
     33 H4         -0.2002   -1.3242   -3.3536 H         1 <0>         0.1553
     34 H5          0.8731    2.8356   -5.5882 H         1 <0>         0.4347
     35 H6         -0.2347   -0.4490   -5.3031 H         1 <0>         0.4433
     36 H7          0.0263    0.8229   -6.3693 H         1 <0>         0.4343
     37 H8         -0.7277   -3.1843   -2.6802 H         1 <0>         0.1928
     38 H9          0.1914   -3.6467    2.9350 H         1 <0>         0.4254
     39 H10        -1.6909   -4.7332    4.3790 H         1 <0>         0.1358
     40 H11        -2.6646   -6.9231    4.9370 H         1 <0>         0.1390
     41 H12        -0.9786   -8.5824    1.3778 H         1 <0>         0.1445
     42 H13        -0.0140   -6.3905    0.8113 H         1 <0>         0.1369
     43 H14        -4.9068   -8.2758    3.5115 H         1 <0>         0.1304
     44 H15        -6.4372   -8.4039    5.4349 H         1 <0>         0.1321
     45 H16        -5.6625   -9.3640    7.5647 H         1 <0>         0.1311
     46 H17        -3.3570  -10.1994    7.7761 H         1 <0>         0.1340
     47 H18        -1.8238  -10.0862    5.8539 H         1 <0>         0.1336
     48 H19         1.2256    3.0218   -3.9561 H         1 <0>         0.4408
@<TRIPOS>BOND
     1    1    2 1
     2    1   30 1
     3    1   31 1
     4    1   32 1
     5    2    3 1
     6    3    7 1
     7    3    4 2
     8    4    5 1
     9    4   11 1
    10    5    6 2
    11    5   33 1
    12    6    7 1
    13    6    8 1
    14    8    9 2
    15    8   10 1
    16    9   34 1
    17    9   48 1
    18   10   35 1
    19   10   36 1
    20   11   15 1
    21   11   12 2
    22   12   13 1
    23   12   37 1
    24   13   14 1
    25   14   15 2
    26   14   16 1
    27   16   17 1
    28   16   38 1
    29   17   22 ar
    30   17   18 ar
    31   18   19 ar
    32   18   39 1
    33   19   20 ar
    34   19   40 1
    35   20   21 ar
    36   20   23 1
    37   21   22 ar
    38   21   41 1
    39   22   42 1
    40   23   24 1
    41   24   29 ar
    42   24   25 ar
    43   25   26 ar
    44   25   43 1
    45   26   27 ar
    46   26   44 1
    47   27   28 ar
    48   27   45 1
    49   28   29 ar
    50   28   46 1
    51   29   47 1
@<TRIPOS>MOLECULE
CHEMBL284436
   66    68     0     0     0
SMALL
USER_CHARGES

@<TRIPOS>ATOM
      1 C1         -0.0167    1.3781    0.0096 C.ar      1 <0>        -0.0998
      2 C2          1.1709    2.0855    0.0021 C.ar      1 <0>        -0.1046
      3 C3          2.3773    1.4107   -0.0130 C.ar      1 <0>        -0.1045
      4 C4          2.3960    0.0285   -0.0201 C.ar      1 <0>        -0.1303
      5 C5          1.2084   -0.6789   -0.0117 C.ar      1 <0>        -0.1411
      6 C6          0.0021   -0.0041    0.0020 C.ar      1 <0>        -0.1056
      7 C7          3.7112   -0.7071   -0.0376 C.3       1 <0>        -0.0870
      8 C8          4.1714   -0.9633    1.3989 C.3       1 <0>         0.0785
      9 C9          4.3708    0.3738    2.1235 C.3       1 <0>        -0.1796
     10 C10         4.8462    0.0771    3.5472 C.3       1 <0>         0.0360
     11 N1          6.0526   -0.7268    3.5394 N.3       1 <0>        -0.3498
     12 C11         7.2394   -0.0198    3.0126 C.3       1 <0>         0.0027
     13 C12         8.2535   -1.1710    2.7987 C.3       1 <0>        -0.1394
     14 C13         7.3799   -2.4381    2.6816 C.3       1 <0>         0.0455
     15 H1          7.5580   -2.9323    1.7265 H         1 <0>         0.1112
     16 N2          5.9710   -1.9575    2.7589 N.3       1 <0>        -0.3077
     17 C14         5.5047   -1.7091    1.3867 C.3       1 <0>        -0.0316
     18 C15         7.6743   -3.3817    3.8191 C.2       1 <0>         0.5281
     19 O1          6.7977   -3.6790    4.6027 O.2       1 <0>        -0.4764
     20 N3          8.9118   -3.8952    3.9657 N.am      1 <0>        -0.7344
     21 C16         9.1980   -4.8124    5.0716 C.3       1 <0>         0.1456
     22 H2          8.3220   -5.4312    5.2664 H         1 <0>         0.1044
     23 C17        10.3817   -5.7072    4.6987 C.3       1 <0>        -0.1282
     24 C18         9.9930   -6.6025    3.5204 C.3       1 <0>        -0.1298
     25 C19        11.1767   -7.4973    3.1475 C.3       1 <0>         0.0916
     26 N4         10.8045   -8.3545    2.0194 N.pl3     1 <0>        -0.6974
     27 C20        11.7093   -9.2445    1.5090 C.cat     1 <0>         0.7423
     28 N5         11.3708  -10.0239    0.4833 N.pl3     1 <0>        -0.7934
     29 N6         12.9287   -9.3316    2.0377 N.pl3     1 <0>        -0.7914
     30 C21         9.5427   -4.0071    6.3260 C.3       1 <0>        -0.0653
     31 Cl1         8.1477   -2.9527    6.7654 Cl        1 <0>        -0.1443
     32 N7          3.1631   -1.7642    2.1058 N.4       1 <0>        -0.6293
     33 H3         -0.9591    1.9053    0.0259 H         1 <0>         0.1343
     34 H4          1.1563    3.1654    0.0076 H         1 <0>         0.1339
     35 H5          3.3051    1.9634   -0.0196 H         1 <0>         0.1277
     36 H6          1.2231   -1.7588   -0.0176 H         1 <0>         0.1224
     37 H7         -0.9258   -0.5567    0.0082 H         1 <0>         0.1335
     38 H8          3.5884   -1.6586   -0.5549 H         1 <0>         0.1007
     39 H9          4.4573   -0.1052   -0.5563 H         1 <0>         0.1169
     40 H10         5.1211    0.9672    1.6011 H         1 <0>         0.1118
     41 H11         3.4273    0.9188    2.1567 H         1 <0>         0.1102
     42 H12         5.0468    1.0176    4.0603 H         1 <0>         0.1154
     43 H13         4.0623   -0.4601    4.0811 H         1 <0>         0.0872
     44 H14         7.0084    0.4724    2.0679 H         1 <0>         0.0575
     45 H15         7.6170    0.6976    3.7412 H         1 <0>         0.1101
     46 H16         8.8202   -1.0134    1.8810 H         1 <0>         0.0900
     47 H17         8.9256   -1.2498    3.6532 H         1 <0>         0.0952
     48 H18         5.3790   -2.6616    0.8719 H         1 <0>         0.1131
     49 H19         6.2465   -1.1106    0.8578 H         1 <0>         0.0913
     50 H20         9.6129   -3.6574    3.3390 H         1 <0>         0.3981
     51 H21        11.2323   -5.0861    4.4179 H         1 <0>         0.0830
     52 H22        10.6514   -6.3279    5.5531 H         1 <0>         0.0949
     53 H23         9.1424   -7.2236    3.8012 H         1 <0>         0.0855
     54 H24         9.7233   -5.9818    2.6659 H         1 <0>         0.0814
     55 H25        12.0273   -6.8762    2.8668 H         1 <0>         0.0933
     56 H26        11.4464   -8.1179    4.0020 H         1 <0>         0.0948
     57 H27         9.9165   -8.2911    1.6343 H         1 <0>         0.4346
     58 H28        10.4828   -9.9604    0.0982 H         1 <0>         0.4407
     59 H29        13.1751   -8.7640    2.7847 H         1 <0>         0.4399
     60 H30        13.5703   -9.9627    1.6757 H         1 <0>         0.4426
     61 H31         9.7556   -4.6896    7.1488 H         1 <0>         0.1024
     62 H32        10.4186   -3.3883    6.1312 H         1 <0>         0.0934
     63 H33         3.0409   -2.6462    1.6313 H         1 <0>         0.4326
     64 H34         3.4695   -1.9313    3.0526 H         1 <0>         0.4413
     65 H35        12.0124  -10.6550    0.1213 H         1 <0>         0.4429
     66 H36         2.2862   -1.2653    2.1193 H         1 <0>         0.4323
@<TRIPOS>BOND
     1    1    6 ar
     2    1    2 ar
     3    1   33 1
     4    2    3 ar
     5    2   34 1
     6    3    4 ar
     7    3   35 1
     8    4    5 ar
     9    4    7 1
    10    5    6 ar
    11    5   36 1
    12    6   37 1
    13    7    8 1
    14    7   38 1
    15    7   39 1
    16    8   17 1
    17    8    9 1
    18    8   32 1
    19    9   10 1
    20    9   40 1
    21    9   41 1
    22   10   11 1
    23   10   42 1
    24   10   43 1
    25   11   16 1
    26   11   12 1
    27   12   13 1
    28   12   44 1
    29   12   45 1
    30   13   14 1
    31   13   46 1
    32   13   47 1
    33   14   15 1
    34   14   16 1
    35   14   18 1
    36   16   17 1
    37   17   48 1
    38   17   49 1
    39   18   19 2
    40   18   20 am
    41   20   21 1
    42   20   50 1
    43   21   22 1
    44   21   23 1
    45   21   30 1
    46   23   24 1
    47   23   51 1
    48   23   52 1
    49   24   25 1
    50   24   53 1
    51   24   54 1
    52   25   26 1
    53   25   55 1
    54   25   56 1
    55   26   27 1
    56   26   57 1
    57   27   28 2
    58   27   29 1
    59   28   58 1
    60   28   65 1
    61   29   59 1
    62   29   60 1
    63   30   31 1
    64   30   61 1
    65   30   62 1
    66   32   63 1
    67   32   64 1
    68   32   66 1
@<TRIPOS>MOLECULE
CHEMBL62370
   43    46     0     0     0
SMALL
USER_CHARGES

@<TRIPOS>ATOM
      1 C1         -0.0116    1.3852    0.0710 C.ar      1 <0>        -0.1141
      2 C2          0.4456    0.7285    1.1987 C.ar      1 <0>        -0.1027
      3 C3          1.6497    0.0525    1.1653 C.ar      1 <0>        -0.1399
      4 C4          2.4005    0.0323   -0.0015 C.ar      1 <0>         0.0729
      5 C5          1.9391    0.6918   -1.1320 C.ar      1 <0>        -0.1169
      6 C6          0.7345    1.3667   -1.0929 C.ar      1 <0>        -0.1010
      7 O1          3.5855   -0.6316   -0.0370 O.3       1 <0>        -0.2401
      8 C7          3.5606   -1.9876    0.0606 C.ar      1 <0>         0.0996
      9 C8          2.3490   -2.6604    0.0618 C.ar      1 <0>        -0.1512
     10 C9          2.3165   -4.0406    0.1604 C.ar      1 <0>        -0.0859
     11 C10         3.4891   -4.7594    0.2584 C.ar      1 <0>        -0.1112
     12 C11         4.7176   -4.0950    0.2590 C.ar      1 <0>        -0.0551
     13 C12         4.7513   -2.7001    0.1535 C.ar      1 <0>         0.1463
     14 O2          5.9411   -2.0448    0.1470 O.3       1 <0>        -0.4589
     15 C13         5.9757   -4.8618    0.3647 C.2       1 <0>         0.3819
     16 N1          7.1792   -4.3390    0.3803 N.2       1 <0>        -0.4605
     17 C14         8.1006   -5.3169    0.4867 C.ar      1 <0>         0.1159
     18 C15         9.5009   -5.3122    0.5455 C.ar      1 <0>        -0.0513
     19 C16        10.1836   -6.4854    0.6543 C.ar      1 <0>        -0.0832
     20 C17         9.4974   -7.7059    0.7086 C.ar      1 <0>        -0.1550
     21 C18         8.1049   -7.7291    0.6514 C.ar      1 <0>        -0.0264
     22 C19         7.4055   -6.5404    0.5408 C.ar      1 <0>         0.0317
     23 N2          6.0613   -6.2232    0.4671 N.pl3     1 <0>        -0.5874
     24 C20        10.2513   -8.9706    0.8262 C.cat     1 <0>         0.6081
     25 N3         11.4740   -9.0684    0.3051 N.pl3     1 <0>        -0.7582
     26 N4          9.7088  -10.0140    1.4533 N.pl3     1 <0>        -0.7636
     27 H1         -0.9553    1.9098    0.0981 H         1 <0>         0.1322
     28 H2         -0.1392    0.7445    2.1066 H         1 <0>         0.1330
     29 H3          2.0067   -0.4597    2.0466 H         1 <0>         0.1296
     30 H4          2.5217    0.6779   -2.0413 H         1 <0>         0.1348
     31 H5          0.3752    1.8804   -1.9724 H         1 <0>         0.1354
     32 H6          1.4258   -2.1051   -0.0142 H         1 <0>         0.1442
     33 H7          1.3680   -4.5572    0.1609 H         1 <0>         0.1428
     34 H8          3.4576   -5.8362    0.3351 H         1 <0>         0.1293
     35 H9         10.0392   -4.3768    0.5041 H         1 <0>         0.1550
     36 H10        11.2626   -6.4752    0.6988 H         1 <0>         0.1451
     37 H11         7.5751   -8.6693    0.6928 H         1 <0>         0.1399
     38 H12        11.8689   -8.3091   -0.1514 H         1 <0>         0.4474
     39 H13         8.8189   -9.9428    1.8326 H         1 <0>         0.4443
     40 H14        10.2039  -10.8445    1.5305 H         1 <0>         0.4326
     41 H15        11.9691   -9.8990    0.3823 H         1 <0>         0.4328
     42 H16         5.3196   -6.8481    0.4827 H         1 <0>         0.4328
     43 H17         6.2551   -1.7910    1.0257 H         1 <0>         0.3950
@<TRIPOS>BOND
     1    1    6 ar
     2    1    2 ar
     3    1   27 1
     4    2    3 ar
     5    2   28 1
     6    3    4 ar
     7    3   29 1
     8    4    5 ar
     9    4    7 1
    10    5    6 ar
    11    5   30 1
    12    6   31 1
    13    7    8 1
    14    8   13 ar
    15    8    9 ar
    16    9   10 ar
    17    9   32 1
    18   10   11 ar
    19   10   33 1
    20   11   12 ar
    21   11   34 1
    22   12   13 ar
    23   12   15 1
    24   13   14 1
    25   14   43 1
    26   15   23 1
    27   15   16 2
    28   16   17 1
    29   17   22 ar
    30   17   18 ar
    31   18   19 ar
    32   18   35 1
    33   19   20 ar
    34   19   36 1
    35   20   21 ar
    36   20   24 1
    37   21   22 ar
    38   21   37 1
    39   22   23 1
    40   23   42 1
    41   24   25 2
    42   24   26 1
    43   25   38 1
    44   25   41 1
    45   26   39 1
    46   26   40 1
@<TRIPOS>MOLECULE
CHEMBL62370__1
   43    46     0     0     0
SMALL
USER_CHARGES

@<TRIPOS>ATOM
      1 C1         -0.0118    1.3848    0.0706 C.ar      1 <0>        -0.1142
      2 C2          0.4452    0.7285    1.1986 C.ar      1 <0>        -0.1026
      3 C3          1.6493    0.0525    1.1656 C.ar      1 <0>        -0.1398
      4 C4          2.4005    0.0323   -0.0010 C.ar      1 <0>         0.0732
      5 C5          1.9395    0.6918   -1.1316 C.ar      1 <0>        -0.1171
      6 C6          0.7347    1.3663   -1.0931 C.ar      1 <0>        -0.1010
      7 O1          3.5855   -0.6316   -0.0361 O.3       1 <0>        -0.2410
      8 C7          3.5606   -1.9876    0.0615 C.ar      1 <0>         0.1001
      9 C8          2.3489   -2.6604    0.0623 C.ar      1 <0>        -0.1537
     10 C9          2.3165   -4.0405    0.1614 C.ar      1 <0>        -0.0842
     11 C10         3.4894   -4.7591    0.2608 C.ar      1 <0>        -0.1130
     12 C11         4.7174   -4.0947    0.2617 C.ar      1 <0>        -0.0492
     13 C12         4.7511   -2.7001    0.1549 C.ar      1 <0>         0.1413
     14 O2          5.9410   -2.0446    0.1488 O.3       1 <0>        -0.4601
     15 C13         5.9759   -4.8614    0.3690 C.2       1 <0>         0.3633
     16 N1          6.0616   -6.2247    0.4672 N.pl3     1 <0>        -0.5853
     17 H1          5.3187   -6.8483    0.4784 H         1 <0>         0.4346
     18 C14         7.4004   -6.5465    0.5466 C.ar      1 <0>         0.0973
     19 C15         8.0947   -7.7454    0.6598 C.ar      1 <0>        -0.0892
     20 C16         9.4585   -7.7454    0.7184 C.ar      1 <0>        -0.0669
     21 C17        10.1718   -6.5412    0.6659 C.ar      1 <0>        -0.1678
     22 C18         9.4952   -5.3316    0.5532 C.ar      1 <0>         0.0148
     23 C19         8.1010   -5.3267    0.4920 C.ar      1 <0>         0.0460
     24 N2          7.1781   -4.3392    0.3789 N.2       1 <0>        -0.4483
     25 C20        11.6484   -6.5561    0.7309 C.cat     1 <0>         0.6088
     26 N3         12.2758   -7.5197    1.4036 N.pl3     1 <0>        -0.7601
     27 N4         12.3518   -5.6059    0.1168 N.pl3     1 <0>        -0.7603
     28 H2         -0.9557    1.9091    0.0973 H         1 <0>         0.1322
     29 H3         -0.1397    0.7448    2.1064 H         1 <0>         0.1330
     30 H4          2.0060   -0.4597    2.0470 H         1 <0>         0.1296
     31 H5          2.5224    0.6779   -2.0407 H         1 <0>         0.1344
     32 H6          0.3753    1.8794   -1.9729 H         1 <0>         0.1353
     33 H7          1.4257   -2.1052   -0.0144 H         1 <0>         0.1438
     34 H8          1.3681   -4.5572    0.1613 H         1 <0>         0.1428
     35 H9          3.4580   -5.8358    0.3382 H         1 <0>         0.1299
     36 H10         6.2548   -1.7909    1.0276 H         1 <0>         0.3929
     37 H11         7.5538   -8.6793    0.7017 H         1 <0>         0.1473
     38 H12         9.9913   -8.6807    0.8063 H         1 <0>         0.1458
     39 H13        10.0446   -4.4026    0.5134 H         1 <0>         0.1490
     40 H14        11.7637   -8.2115    1.8507 H         1 <0>         0.4461
     41 H15        11.8950   -4.9043   -0.3730 H         1 <0>         0.4467
     42 H16        13.3208   -5.6157    0.1595 H         1 <0>         0.4328
     43 H17        13.2448   -7.5294    1.4463 H         1 <0>         0.4327
@<TRIPOS>BOND
     1    1    6 ar
     2    1    2 ar
     3    1   28 1
     4    2    3 ar
     5    2   29 1
     6    3    4 ar
     7    3   30 1
     8    4    5 ar
     9    4    7 1
    10    5    6 ar
    11    5   31 1
    12    6   32 1
    13    7    8 1
    14    8   13 ar
    15    8    9 ar
    16    9   10 ar
    17    9   33 1
    18   10   11 ar
    19   10   34 1
    20   11   12 ar
    21   11   35 1
    22   12   13 ar
    23   12   15 1
    24   13   14 1
    25   14   36 1
    26   15   24 2
    27   15   16 1
    28   16   17 1
    29   16   18 1
    30   18   23 ar
    31   18   19 ar
    32   19   20 ar
    33   19   37 1
    34   20   21 ar
    35   20   38 1
    36   21   22 ar
    37   21   25 1
    38   22   23 ar
    39   22   39 1
    40   23   24 1
    41   25   26 2
    42   25   27 1
    43   26   40 1
    44   26   43 1
    45   27   41 1
    46   27   42 1
@<TRIPOS>MOLECULE
CHEMBL104166
   54    57     0     0     0
SMALL
USER_CHARGES

@<TRIPOS>ATOM
      1 C1          0.4398    1.4684   -1.5481 C.ar      1 <0>        -0.2568
      2 C2          1.4838    2.1100   -0.9001 C.ar      1 <0>         0.1983
      3 N1          2.4694    1.3882   -0.3932 N.ar      1 <0>        -0.5498
      4 C3          2.4658    0.0676   -0.4996 C.ar      1 <0>         0.5441
      5 N2          1.4836   -0.5763   -1.1129 N.ar      1 <0>        -0.5614
      6 C4          0.4677    0.0857   -1.6413 C.ar      1 <0>         0.1822
      7 N3          3.5144   -0.6574    0.0429 N.pl3     1 <0>        -0.6334
      8 C5          3.4618   -2.0499    0.0631 C.ar      1 <0>         0.2043
      9 C6          2.2547   -2.6896    0.0537 C.ar      1 <0>        -0.1126
     10 C7          2.1858   -4.0911    0.0738 C.ar      1 <0>        -0.0790
     11 C8          3.3423   -4.8545    0.1041 C.ar      1 <0>        -0.0646
     12 C9          4.5929   -4.2202    0.1144 C.ar      1 <0>        -0.0001
     13 C10         4.6574   -2.8034    0.0876 C.ar      1 <0>        -0.0653
     14 C11         5.9069   -2.1700    0.0925 C.ar      1 <0>        -0.0213
     15 C12         7.0606   -2.9361    0.1171 C.ar      1 <0>        -0.1380
     16 C13         6.9853   -4.3398    0.1372 C.ar      1 <0>        -0.0892
     17 C14         5.7836   -4.9714    0.1455 C.ar      1 <0>        -0.0671
     18 C15         8.3821   -2.2722    0.1218 C.cat     1 <0>         0.5979
     19 N4          9.4948   -3.0038    0.1455 N.pl3     1 <0>        -0.7558
     20 N5          8.4596   -0.9428    0.1024 N.pl3     1 <0>        -0.7625
     21 C16         0.8670   -4.7596    0.0630 C.2       1 <0>         0.5651
     22 O1          0.8007   -5.9733    0.0803 O.2       1 <0>        -0.4980
     23 N6         -0.2616   -4.0234    0.0340 N.am      1 <0>        -0.6671
     24 C17        -1.5079   -4.6500    0.1319 C.ar      1 <0>         0.1888
     25 C18        -2.6261   -4.0707   -0.4540 C.ar      1 <0>        -0.1475
     26 C19        -3.8555   -4.6921   -0.3554 C.ar      1 <0>        -0.0652
     27 C20        -3.9739   -5.8898    0.3257 C.ar      1 <0>        -0.1914
     28 C21        -2.8626   -6.4692    0.9101 C.ar      1 <0>        -0.0658
     29 C22        -1.6292   -5.8559    0.8103 C.ar      1 <0>        -0.1283
     30 C23        -5.3171   -6.5648    0.4317 C.3       1 <0>         0.0495
     31 N7         -5.4984   -7.4760   -0.7062 N.4       1 <0>        -0.6377
     32 H1         -0.3798    2.0332   -1.9672 H         1 <0>         0.1572
     33 H2          1.4924    3.1863   -0.8105 H         1 <0>         0.1807
     34 H3         -0.3304   -0.4448   -2.1394 H         1 <0>         0.1758
     35 H4          4.2851   -0.1958    0.4088 H         1 <0>         0.4243
     36 H5          1.3435   -2.1103    0.0308 H         1 <0>         0.1608
     37 H6          3.2805   -5.9326    0.1201 H         1 <0>         0.1584
     38 H7          5.9702   -1.0920    0.0767 H         1 <0>         0.1363
     39 H8          7.8943   -4.9226    0.1563 H         1 <0>         0.1421
     40 H9          5.7410   -6.0504    0.1614 H         1 <0>         0.1580
     41 H10         9.4384   -3.9721    0.1596 H         1 <0>         0.4458
     42 H11         7.6492   -0.4100    0.0852 H         1 <0>         0.4417
     43 H12         9.3263   -0.5073    0.1055 H         1 <0>         0.4365
     44 H13        -0.2093   -3.0589   -0.0548 H         1 <0>         0.4189
     45 H14        -2.5343   -3.1352   -0.9857 H         1 <0>         0.1388
     46 H15        -4.7254   -4.2420   -0.8104 H         1 <0>         0.1384
     47 H16        -2.9585   -7.4045    1.4416 H         1 <0>         0.1376
     48 H17        -0.7608   -6.3114    1.2628 H         1 <0>         0.1531
     49 H18        -5.3670   -7.1308    1.3619 H         1 <0>         0.1402
     50 H19        -6.1043   -5.8109    0.4224 H         1 <0>         0.1402
     51 H20        -5.4522   -6.9521   -1.5673 H         1 <0>         0.4341
     52 H21        -4.7697   -8.1739   -0.6977 H         1 <0>         0.4348
     53 H22        10.3616   -2.5684    0.1486 H         1 <0>         0.4358
     54 H23        -6.3977   -7.9279   -0.6353 H         1 <0>         0.4386
@<TRIPOS>BOND
     1    1    6 ar
     2    1    2 ar
     3    1   32 1
     4    2    3 ar
     5    2   33 1
     6    3    4 ar
     7    4    5 ar
     8    4    7 1
     9    5    6 ar
    10    6   34 1
    11    7    8 1
    12    7   35 1
    13    8   13 ar
    14    8    9 ar
    15    9   10 ar
    16    9   36 1
    17   10   11 ar
    18   10   21 1
    19   11   12 ar
    20   11   37 1
    21   12   17 ar
    22   12   13 ar
    23   13   14 ar
    24   14   15 ar
    25   14   38 1
    26   15   16 ar
    27   15   18 1
    28   16   17 ar
    29   16   39 1
    30   17   40 1
    31   18   19 2
    32   18   20 1
    33   19   41 1
    34   19   53 1
    35   20   42 1
    36   20   43 1
    37   21   22 2
    38   21   23 am
    39   23   24 1
    40   23   44 1
    41   24   29 ar
    42   24   25 ar
    43   25   26 ar
    44   25   45 1
    45   26   27 ar
    46   26   46 1
    47   27   28 ar
    48   27   30 1
    49   28   29 ar
    50   28   47 1
    51   29   48 1
    52   30   31 1
    53   30   49 1
    54   30   50 1
    55   31   51 1
    56   31   52 1
    57   31   54 1
@<TRIPOS>MOLECULE
CHEMBL158939
   64    66     0     0     0
SMALL
USER_CHARGES

@<TRIPOS>ATOM
      1 C1         -0.0167    1.3781    0.0096 C.ar      1 <0>        -0.1062
      2 C2          1.1709    2.0855    0.0021 C.ar      1 <0>        -0.1167
      3 C3          2.3773    1.4107   -0.0130 C.ar      1 <0>        -0.1047
      4 C4          2.3960    0.0285   -0.0201 C.ar      1 <0>        -0.0998
      5 C5          1.2084   -0.6789   -0.0117 C.ar      1 <0>        -0.1034
      6 C6          0.0021   -0.0041    0.0020 C.ar      1 <0>        -0.1158
      7 C7          3.7112   -0.7071   -0.0376 C.3       1 <0>        -0.5835
      8 S1          4.2568   -1.0108    1.6656 S.o2      1 <0>         2.6057
      9 O1          4.5927    0.2165    2.2981 O.2       1 <0>        -0.9465
     10 O2          3.3873   -1.9386    2.3000 O.2       1 <0>        -0.9393
     11 N1          5.6959   -1.8160    1.5142 N.pl3     1 <0>        -1.0949
     12 C8          6.8509   -1.1450    0.9125 C.3       1 <0>         0.1359
     13 H1          6.7478   -0.0666    1.0325 H         1 <0>         0.1296
     14 C9          6.9211   -1.4880   -0.5769 C.3       1 <0>         0.0496
     15 O3          7.1727   -2.8861   -0.7324 O.3       1 <0>        -0.5482
     16 C10         8.1124   -1.6080    1.5946 C.2       1 <0>         0.5550
     17 O4          8.0526   -2.4186    2.4947 O.2       1 <0>        -0.5063
     18 N2          9.3071   -1.1212    1.2043 N.am      1 <0>        -0.6032
     19 C11         9.5232   -0.1314    0.1333 C.3       1 <0>         0.0895
     20 C12        10.8768    0.5379    0.4792 C.3       1 <0>        -0.1323
     21 C13        11.6847   -0.6635    1.0373 C.3       1 <0>        -0.1234
     22 C14        10.6100   -1.4847    1.7803 C.3       1 <0>         0.1234
     23 H2         10.6257   -1.2437    2.8432 H         1 <0>         0.1047
     24 C15        10.8655   -2.9566    1.5818 C.2       1 <0>         0.5050
     25 O5         10.0429   -3.6437    1.0143 O.2       1 <0>        -0.4929
     26 N3         12.0081   -3.5093    2.0349 N.am      1 <0>        -0.7338
     27 C16        12.2565   -4.9402    1.8420 C.3       1 <0>         0.1485
     28 C17        13.5935   -5.3025    2.4354 C.ar      1 <0>        -0.0350
     29 C18        14.7351   -5.2290    1.6574 C.ar      1 <0>        -0.0965
     30 C19        15.9621   -5.5598    2.1947 C.ar      1 <0>        -0.0579
     31 C20        16.0501   -5.9686    3.5257 C.ar      1 <0>        -0.1518
     32 C21        14.8952   -6.0402    4.3052 C.ar      1 <0>        -0.0570
     33 C22        13.6748   -5.7017    3.7576 C.ar      1 <0>        -0.0957
     34 C23        17.3628   -6.3252    4.1082 C.cat     1 <0>         0.6003
     35 N4         17.4436   -6.7150    5.3787 N.pl3     1 <0>        -0.7605
     36 N5         18.4632   -6.2564    3.3617 N.pl3     1 <0>        -0.7611
     37 H3         -0.9591    1.9053    0.0259 H         1 <0>         0.1297
     38 H4          1.1563    3.1654    0.0076 H         1 <0>         0.1309
     39 H5          3.3051    1.9634   -0.0196 H         1 <0>         0.1297
     40 H6          1.2231   -1.7588   -0.0176 H         1 <0>         0.1309
     41 H7         -0.9258   -0.5567    0.0082 H         1 <0>         0.1313
     42 H8          3.5884   -1.6586   -0.5549 H         1 <0>         0.1458
     43 H9          4.4573   -0.1052   -0.5563 H         1 <0>         0.1386
     44 H10         5.7742   -2.7318    1.8240 H         1 <0>         0.4314
     45 H11         5.9741   -1.2341   -1.0533 H         1 <0>         0.0613
     46 H12         7.7261   -0.9199   -1.0431 H         1 <0>         0.0685
     47 H13         7.2300   -3.1754   -1.6533 H         1 <0>         0.3831
     48 H14         9.5819   -0.6274   -0.8355 H         1 <0>         0.0773
     49 H15         8.7230    0.6087    0.1337 H         1 <0>         0.0861
     50 H16        11.3503    0.9461   -0.4137 H         1 <0>         0.0941
     51 H17        10.7485    1.3091    1.2388 H         1 <0>         0.0865
     52 H18        12.1250   -1.2425    0.2256 H         1 <0>         0.0829
     53 H19        12.4537   -0.3224    1.7304 H         1 <0>         0.0934
     54 H20        12.6661   -2.9598    2.4888 H         1 <0>         0.4002
     55 H21        11.4724   -5.5148    2.3351 H         1 <0>         0.0886
     56 H22        12.2583   -5.1681    0.7761 H         1 <0>         0.0879
     57 H23        14.6657   -4.9124    0.6272 H         1 <0>         0.1507
     58 H24        16.8525   -5.5027    1.5861 H         1 <0>         0.1403
     59 H25        14.9568   -6.3562    5.3361 H         1 <0>         0.1405
     60 H26        12.7806   -5.7528    4.3610 H         1 <0>         0.1515
     61 H27        16.6420   -6.7652    5.9225 H         1 <0>         0.4447
     62 H28        18.4043   -5.9724    2.4361 H         1 <0>         0.4444
     63 H29        19.3237   -6.4902    3.7435 H         1 <0>         0.4342
     64 H30        18.3041   -6.9488    5.7605 H         1 <0>         0.4343
@<TRIPOS>BOND
     1    1    6 ar
     2    1    2 ar
     3    1   37 1
     4    2    3 ar
     5    2   38 1
     6    3    4 ar
     7    3   39 1
     8    4    5 ar
     9    4    7 1
    10    5    6 ar
    11    5   40 1
    12    6   41 1
    13    7    8 1
    14    7   42 1
    15    7   43 1
    16    8    9 2
    17    8   10 2
    18    8   11 1
    19   11   12 1
    20   11   44 1
    21   12   13 1
    22   12   14 1
    23   12   16 1
    24   14   15 1
    25   14   45 1
    26   14   46 1
    27   15   47 1
    28   16   17 2
    29   16   18 am
    30   18   22 1
    31   18   19 1
    32   19   20 1
    33   19   48 1
    34   19   49 1
    35   20   21 1
    36   20   50 1
    37   20   51 1
    38   21   22 1
    39   21   52 1
    40   21   53 1
    41   22   23 1
    42   22   24 1
    43   24   25 2
    44   24   26 am
    45   26   27 1
    46   26   54 1
    47   27   28 1
    48   27   55 1
    49   27   56 1
    50   28   33 ar
    51   28   29 ar
    52   29   30 ar
    53   29   57 1
    54   30   31 ar
    55   30   58 1
    56   31   32 ar
    57   31   34 1
    58   32   33 ar
    59   32   59 1
    60   33   60 1
    61   34   35 2
    62   34   36 1
    63   35   61 1
    64   35   64 1
    65   36   62 1
    66   36   63 1
@<TRIPOS>MOLECULE
CHEMBL366964
   60    61     0     0     0
SMALL
USER_CHARGES

@<TRIPOS>ATOM
      1 C1          0.6124    2.0081   -0.5535 C.3       1 <0>        -0.1585
      2 C2          0.4389    0.4881   -0.5344 C.3       1 <0>         0.1288
      3 H1          0.9837    0.0496   -1.3705 H         1 <0>         0.1203
      4 C3          0.9780   -0.0628    0.7606 C.2       1 <0>         0.5232
      5 O1          0.2462   -0.6716    1.5120 O.2       1 <0>        -0.5232
      6 N1          2.2735    0.1211    1.0837 N.am      1 <0>        -0.7200
      7 C4          2.7976   -0.4144    2.3426 C.3       1 <0>         0.1432
      8 H2          2.0280   -0.3539    3.1121 H         1 <0>         0.1075
      9 C5          3.2083   -1.8753    2.1446 C.3       1 <0>        -0.1381
     10 C6          3.7253   -2.4454    3.4674 C.3       1 <0>        -0.1366
     11 C7          4.9581   -1.6528    3.9133 C.3       1 <0>         0.1070
     12 N2          4.6096   -0.2265    3.9661 N.pl3     1 <0>        -0.6334
     13 C8          4.0194    0.4017    2.7761 C.3       1 <0>         0.3211
     14 O2          3.6174    1.7370    3.0881 O.3       1 <0>        -0.5454
     15 C9          4.8300    0.5032    5.1019 C.cat     1 <0>         0.7468
     16 N3          3.9541    1.4345    5.4756 N.pl3     1 <0>        -0.7776
     17 N4          5.9205    0.2825    5.8342 N.pl3     1 <0>        -0.7855
     18 N5         -0.9835    0.1574   -0.6511 N.am      1 <0>        -0.7141
     19 C10        -1.5594    0.0783   -1.8671 C.2       1 <0>         0.5337
     20 O3         -0.9000    0.2808   -2.8647 O.2       1 <0>        -0.5147
     21 C11        -3.0226   -0.2618   -1.9872 C.3       1 <0>         0.1368
     22 H3         -3.2054   -1.2411   -1.5450 H         1 <0>         0.1329
     23 C12        -3.8532    0.7925   -1.2528 C.3       1 <0>         0.0569
     24 O4         -3.5268    2.0902   -1.7543 O.3       1 <0>        -0.5585
     25 N6         -3.4039   -0.2857   -3.4015 N.pl3     1 <0>        -1.0925
     26 S1         -4.5321   -1.3733   -3.9366 S.o2      1 <0>         2.6939
     27 O5         -4.7021   -1.1315   -5.3265 O.2       1 <0>        -0.9448
     28 O6         -4.1474   -2.6422   -3.4256 O.2       1 <0>        -0.9529
     29 C13        -6.0607   -0.9614   -3.1631 C.ar      1 <0>        -0.6801
     30 C14        -6.3912   -1.5216   -1.9433 C.ar      1 <0>        -0.0286
     31 C15        -7.5904   -1.1984   -1.3365 C.ar      1 <0>        -0.1392
     32 C16        -8.4590   -0.3147   -1.9492 C.ar      1 <0>        -0.0605
     33 C17        -8.1282    0.2462   -3.1686 C.ar      1 <0>        -0.1371
     34 C18        -6.9270   -0.0737   -3.7734 C.ar      1 <0>        -0.0145
     35 H4          1.6708    2.2541   -0.4666 H         1 <0>         0.0694
     36 H5          0.2225    2.4065   -1.4901 H         1 <0>         0.0826
     37 H6          0.0677    2.4465    0.2826 H         1 <0>         0.0653
     38 H7          2.8589    0.6081    0.4828 H         1 <0>         0.4082
     39 H8          2.3458   -2.4532    1.8126 H         1 <0>         0.0957
     40 H9          3.9949   -1.9326    1.3923 H         1 <0>         0.0812
     41 H10         2.9474   -2.3658    4.2267 H         1 <0>         0.0807
     42 H11         3.9957   -3.4925    3.3313 H         1 <0>         0.1054
     43 H12         5.2711   -1.9893    4.9016 H         1 <0>         0.0990
     44 H13         5.7680   -1.8049    3.1998 H         1 <0>         0.1016
     45 H14         4.7529    0.4177    1.9701 H         1 <0>         0.1114
     46 H15         4.3523    2.3317    3.2915 H         1 <0>         0.3954
     47 H16         4.1533    2.0137    6.2278 H         1 <0>         0.4335
     48 H17         6.5215   -0.4428    5.6027 H         1 <0>         0.4404
     49 H18         6.1136    0.8470    6.5989 H         1 <0>         0.4392
     50 H19        -1.5109   -0.0045    0.1467 H         1 <0>         0.4101
     51 H20        -4.9133    0.5968   -1.4138 H         1 <0>         0.0679
     52 H21        -3.6338    0.7495   -0.1860 H         1 <0>         0.0639
     53 H22        -4.0170    2.8094   -1.3329 H         1 <0>         0.3859
     54 H23        -2.9955    0.3356   -4.0245 H         1 <0>         0.4324
     55 H24        -5.7126   -2.2120   -1.4646 H         1 <0>         0.1395
     56 H25        -7.8489   -1.6366   -0.3838 H         1 <0>         0.1348
     57 H26        -9.3963   -0.0627   -1.4755 H         1 <0>         0.1332
     58 H27        -8.8070    0.9364   -3.6475 H         1 <0>         0.1357
     59 H28        -6.6669    0.3674   -4.7243 H         1 <0>         0.1422
     60 H29         3.1170    1.5335    4.9956 H         1 <0>         0.4487
@<TRIPOS>BOND
     1    1    2 1
     2    1   35 1
     3    1   36 1
     4    1   37 1
     5    2    3 1
     6    2    4 1
     7    2   18 1
     8    4    5 2
     9    4    6 am
    10    6    7 1
    11    6   38 1
    12    7    8 1
    13    7   13 1
    14    7    9 1
    15    9   10 1
    16    9   39 1
    17    9   40 1
    18   10   11 1
    19   10   41 1
    20   10   42 1
    21   11   12 1
    22   11   43 1
    23   11   44 1
    24   12   13 1
    25   12   15 1
    26   13   14 1
    27   13   45 1
    28   14   46 1
    29   15   16 2
    30   15   17 1
    31   16   47 1
    32   16   60 1
    33   17   48 1
    34   17   49 1
    35   18   19 am
    36   18   50 1
    37   19   20 2
    38   19   21 1
    39   21   22 1
    40   21   23 1
    41   21   25 1
    42   23   24 1
    43   23   51 1
    44   23   52 1
    45   24   53 1
    46   25   26 1
    47   25   54 1
    48   26   27 2
    49   26   28 2
    50   26   29 1
    51   29   34 ar
    52   29   30 ar
    53   30   31 ar
    54   30   55 1
    55   31   32 ar
    56   31   56 1
    57   32   33 ar
    58   32   57 1
    59   33   34 ar
    60   33   58 1
    61   34   59 1
@<TRIPOS>MOLECULE
CHEMBL366964__1
   60    61     0     0     0
SMALL
USER_CHARGES

@<TRIPOS>ATOM
      1 C1         -0.0187    1.5258    0.0104 C.3       1 <0>        -0.1597
      2 C2          0.0021   -0.0041    0.0020 C.3       1 <0>         0.1286
      3 H1          0.5123   -0.3556   -0.8948 H         1 <0>         0.1213
      4 C3          0.7309   -0.5033    1.2229 C.2       1 <0>         0.5205
      5 O1          0.1587   -1.2128    2.0229 O.2       1 <0>        -0.5245
      6 N1          2.0187   -0.1613    1.4257 N.am      1 <0>        -0.7203
      7 C4          2.7273   -0.6466    2.6126 C.3       1 <0>         0.1536
      8 H2          2.0358   -0.6975    3.4537 H         1 <0>         0.1119
      9 C5          3.2960   -2.0398    2.3339 C.3       1 <0>        -0.1389
     10 C6          4.0082   -2.5614    3.5841 C.3       1 <0>        -0.1371
     11 C7          5.1700   -1.6258    3.9327 C.3       1 <0>         0.1066
     12 N2          4.6527   -0.2565    4.0600 N.pl3     1 <0>        -0.6256
     13 C8          3.8741    0.3111    2.9507 C.3       1 <0>         0.3131
     14 O2          4.7167    0.4719    1.8078 O.3       1 <0>        -0.5401
     15 C9          4.8910    0.4763    5.1901 C.cat     1 <0>         0.7529
     16 N3          4.9347   -0.1259    6.3774 N.pl3     1 <0>        -0.7796
     17 N4          5.0793    1.7920    5.1034 N.pl3     1 <0>        -0.7873
     18 N5         -1.3723   -0.5112    0.0124 N.am      1 <0>        -0.7142
     19 C10        -2.0508   -0.6427   -1.1446 C.2       1 <0>         0.5335
     20 O3         -1.5236   -0.3413   -2.1944 O.2       1 <0>        -0.5141
     21 C11        -3.4646   -1.1643   -1.1339 C.3       1 <0>         0.1368
     22 H3         -3.4790   -2.1662   -0.7048 H         1 <0>         0.1330
     23 C12        -4.3441   -0.2367   -0.2931 C.3       1 <0>         0.0570
     24 O4         -4.2337    1.1001   -0.7857 O.3       1 <0>        -0.5584
     25 N6         -3.9776   -1.2130   -2.5053 N.pl3     1 <0>        -1.0924
     26 S1         -5.0081   -2.4265   -2.9613 S.o2      1 <0>         2.6937
     27 O5         -5.3433   -2.1851   -4.3210 O.2       1 <0>        -0.9447
     28 O6         -4.4191   -3.6443   -2.5265 O.2       1 <0>        -0.9527
     29 C13        -6.4925   -2.2255   -2.0334 C.ar      1 <0>        -0.6799
     30 C14        -6.6283   -2.8434   -0.8044 C.ar      1 <0>        -0.0287
     31 C15        -7.7928   -2.6857   -0.0764 C.ar      1 <0>        -0.1393
     32 C16        -8.8213   -1.9097   -0.5773 C.ar      1 <0>        -0.0606
     33 C17        -8.6851   -1.2910   -1.8060 C.ar      1 <0>        -0.1371
     34 C18        -7.5189   -1.4452   -2.5320 C.ar      1 <0>        -0.0145
     35 H4          1.0039    1.9031    0.0027 H         1 <0>         0.0694
     36 H5         -0.5459    1.8868   -0.8726 H         1 <0>         0.0837
     37 H6         -0.5289    1.8773    0.9072 H         1 <0>         0.0647
     38 H7          2.4764    0.4061    0.7859 H         1 <0>         0.4139
     39 H8          2.4840   -2.7172    2.0694 H         1 <0>         0.0884
     40 H9          4.0055   -1.9840    1.5084 H         1 <0>         0.0867
     41 H10         3.3051   -2.5941    4.4164 H         1 <0>         0.0780
     42 H11         4.3927   -3.5632    3.3924 H         1 <0>         0.1022
     43 H12         5.6186   -1.9361    4.8764 H         1 <0>         0.0936
     44 H13         5.9183   -1.6616    3.1409 H         1 <0>         0.1061
     45 H14         3.4674    1.2782    3.2464 H         1 <0>         0.0986
     46 H15         5.4652    1.0670    1.9516 H         1 <0>         0.3931
     47 H16         5.1037    0.3938    7.1788 H         1 <0>         0.4407
     48 H17         5.0475    2.2305    4.2388 H         1 <0>         0.4380
     49 H18         5.2483    2.3116    5.9048 H         1 <0>         0.4415
     50 H19        -1.7940   -0.7522    0.8520 H         1 <0>         0.4100
     51 H20        -5.3821   -0.5632   -0.3576 H         1 <0>         0.0679
     52 H21        -4.0169   -0.2692    0.7461 H         1 <0>         0.0639
     53 H22        -4.7661    1.7439   -0.2987 H         1 <0>         0.3858
     54 H23        -3.7136   -0.5345   -3.1463 H         1 <0>         0.4324
     55 H24        -5.8248   -3.4497   -0.4130 H         1 <0>         0.1396
     56 H25        -7.8992   -3.1691    0.8835 H         1 <0>         0.1348
     57 H26        -9.7314   -1.7871   -0.0089 H         1 <0>         0.1332
     58 H27        -9.4888   -0.6850   -2.1975 H         1 <0>         0.1357
     59 H28        -7.4111   -0.9589   -3.4902 H         1 <0>         0.1422
     60 H29         4.7976   -1.0841    6.4406 H         1 <0>         0.4429
@<TRIPOS>BOND
     1    1    2 1
     2    1   35 1
     3    1   36 1
     4    1   37 1
     5    2    3 1
     6    2    4 1
     7    2   18 1
     8    4    5 2
     9    4    6 am
    10    6    7 1
    11    6   38 1
    12    7    8 1
    13    7   13 1
    14    7    9 1
    15    9   10 1
    16    9   39 1
    17    9   40 1
    18   10   11 1
    19   10   41 1
    20   10   42 1
    21   11   12 1
    22   11   43 1
    23   11   44 1
    24   12   13 1
    25   12   15 1
    26   13   14 1
    27   13   45 1
    28   14   46 1
    29   15   16 2
    30   15   17 1
    31   16   47 1
    32   16   60 1
    33   17   48 1
    34   17   49 1
    35   18   19 am
    36   18   50 1
    37   19   20 2
    38   19   21 1
    39   21   22 1
    40   21   23 1
    41   21   25 1
    42   23   24 1
    43   23   51 1
    44   23   52 1
    45   24   53 1
    46   25   26 1
    47   25   54 1
    48   26   27 2
    49   26   28 2
    50   26   29 1
    51   29   34 ar
    52   29   30 ar
    53   30   31 ar
    54   30   55 1
    55   31   32 ar
    56   31   56 1
    57   32   33 ar
    58   32   57 1
    59   33   34 ar
    60   33   58 1
    61   34   59 1
@<TRIPOS>MOLECULE
CHEMBL71037
   61    62     0     0     0
SMALL
USER_CHARGES

@<TRIPOS>ATOM
      1 C1         -0.0004    1.3413    0.0987 C.3       1 <0>        -0.1663
      2 C2         -0.0408   -0.1853    0.0038 C.3       1 <0>         0.1854
      3 C3          0.6602   -0.7906    1.2216 C.3       1 <0>        -0.1618
      4 C4         -1.4962   -0.6556   -0.0331 C.3       1 <0>        -0.1551
      5 N1          0.6430   -0.6169   -1.2178 N.am      1 <0>        -0.7412
      6 C5          1.9426   -0.3132   -1.4059 C.2       1 <0>         0.7115
      7 O1          2.5236    0.3942   -0.6056 O.2       1 <0>        -0.5809
      8 N2          2.5982   -0.7936   -2.4810 N.am      1 <0>        -0.6281
      9 C6          1.8814   -1.5483   -3.5185 C.3       1 <0>         0.1010
     10 C7          2.1302   -0.8754   -4.8741 C.3       1 <0>         0.1121
     11 N3          3.5746   -0.6536   -5.0301 N.am      1 <0>        -0.5970
     12 C8          4.2915    0.1011   -3.9925 C.3       1 <0>         0.0767
     13 C9          4.0415   -0.5670   -2.6398 C.3       1 <0>         0.1132
     14 C10         4.2302   -1.1340   -6.1052 C.2       1 <0>         0.7327
     15 O2          3.6205   -1.7253   -6.9745 O.2       1 <0>        -0.5662
     16 N4          5.5619   -0.9587   -6.2163 N.am      1 <0>        -0.5701
     17 C11         6.5375   -0.2090   -5.4354 C.3       1 <0>         0.0453
     18 H1          6.6632   -0.5859   -4.4204 H         1 <0>         0.1070
     19 C12         7.6078   -0.7003   -6.4021 C.3       1 <0>        -0.1256
     20 H2          8.0603    0.0902   -7.0008 H         1 <0>         0.1344
     21 C13         6.4765   -1.4138   -7.0809 C.2       1 <0>         0.5466
     22 O3          6.4138   -2.1356   -8.0529 O.2       1 <0>        -0.4840
     23 C14         8.6377   -1.6359   -5.7658 C.3       1 <0>        -0.0900
     24 C15         9.7275   -1.9653   -6.7879 C.3       1 <0>        -0.1389
     25 C16        10.7575   -2.9009   -6.1516 C.3       1 <0>         0.0822
     26 N5         11.8010   -3.2163   -7.1303 N.pl3     1 <0>        -0.6507
     27 C17        12.7869   -4.0028   -6.8011 C.cat     1 <0>         0.7359
     28 N6         12.8475   -4.5364   -5.5355 N.pl3     1 <0>        -0.8139
     29 N7         13.7662   -4.2988   -7.7195 N.pl3     1 <0>        -0.8184
     30 C18         6.3246    1.2822   -5.4810 C.2       1 <0>         0.4937
     31 O4          5.2412    1.7335   -5.8114 O.co2     1 <0>        -0.6562
     32 O5          7.2357    2.0373   -5.1875 O.co2     1 <0>        -0.6689
     33 H3          1.0365    1.6764    0.1249 H         1 <0>         0.0843
     34 H4         -0.4998    1.7726   -0.7689 H         1 <0>         0.0523
     35 H5         -0.5091    1.6624    1.0076 H         1 <0>         0.0598
     36 H6          0.1515   -0.4695    2.1305 H         1 <0>         0.0621
     37 H7          0.6314   -1.8782    1.1540 H         1 <0>         0.0510
     38 H8          1.6971   -0.4555    1.2479 H         1 <0>         0.0770
     39 H9         -1.9956   -0.2244   -0.9006 H         1 <0>         0.0619
     40 H10        -1.5249   -1.7432   -0.1006 H         1 <0>         0.0604
     41 H11        -2.0049   -0.3345    0.8759 H         1 <0>         0.0744
     42 H12         0.1604   -1.1212   -1.8914 H         1 <0>         0.3927
     43 H13         2.2503   -2.5736   -3.5458 H         1 <0>         0.0737
     44 H14         0.8135   -1.5469   -3.2999 H         1 <0>         0.0873
     45 H15         1.7708   -1.5217   -5.6748 H         1 <0>         0.1046
     46 H16         1.6074    0.0804   -4.9095 H         1 <0>         0.0748
     47 H17         5.3593    0.0996   -4.2111 H         1 <0>         0.1195
     48 H18         3.9225    1.1264   -3.9652 H         1 <0>         0.0886
     49 H19         4.3999    0.0823   -1.8410 H         1 <0>         0.1067
     50 H20         4.5678   -1.5208   -2.6031 H         1 <0>         0.0616
     51 H21         9.0865   -1.1477   -4.9007 H         1 <0>         0.0939
     52 H22         8.1462   -2.5560   -5.4495 H         1 <0>         0.0744
     53 H23         9.2788   -2.4535   -7.6530 H         1 <0>         0.0898
     54 H24        10.2190   -1.0453   -7.1043 H         1 <0>         0.0907
     55 H25        11.2062   -2.4127   -5.2865 H         1 <0>         0.1041
     56 H26        10.2660   -3.8210   -5.8353 H         1 <0>         0.1009
     57 H27        12.1565   -4.3276   -4.8875 H         1 <0>         0.4383
     58 H28        13.5812   -5.1218   -5.2906 H         1 <0>         0.4361
     59 H29        13.7235   -3.9224   -8.6125 H         1 <0>         0.4377
     60 H30        14.4999   -4.8842   -7.4746 H         1 <0>         0.4365
     61 H31        11.7583   -2.8399   -8.0232 H         1 <0>         0.4403
@<TRIPOS>BOND
     1    1    2 1
     2    1   33 1
     3    1   34 1
     4    1   35 1
     5    2    3 1
     6    2    4 1
     7    2    5 1
     8    3   36 1
     9    3   37 1
    10    3   38 1
    11    4   39 1
    12    4   40 1
    13    4   41 1
    14    5    6 am
    15    5   42 1
    16    6    7 2
    17    6    8 am
    18    8   13 1
    19    8    9 1
    20    9   10 1
    21    9   43 1
    22    9   44 1
    23   10   11 1
    24   10   45 1
    25   10   46 1
    26   11   12 1
    27   11   14 am
    28   12   13 1
    29   12   47 1
    30   12   48 1
    31   13   49 1
    32   13   50 1
    33   14   15 2
    34   14   16 am
    35   16   21 am
    36   16   17 1
    37   17   18 1
    38   17   19 1
    39   17   30 1
    40   19   20 1
    41   19   21 1
    42   19   23 1
    43   21   22 2
    44   23   24 1
    45   23   51 1
    46   23   52 1
    47   24   25 1
    48   24   53 1
    49   24   54 1
    50   25   26 1
    51   25   55 1
    52   25   56 1
    53   26   27 2
    54   26   61 1
    55   27   28 1
    56   27   29 1
    57   28   57 1
    58   28   58 1
    59   29   59 1
    60   29   60 1
    61   30   31 2
    62   30   32 1
@<TRIPOS>MOLECULE
CHEMBL572190
   72    76     0     0     0
SMALL
USER_CHARGES

@<TRIPOS>ATOM
      1 C1         -2.6516    1.4342    0.2926 C.3       1 <0>         0.0905
      2 N1         -2.1196    0.0693    0.2802 N.pl3     1 <0>        -0.6293
      3 C2         -2.1006   -0.7208    1.5138 C.3       1 <0>         0.1069
      4 C3         -1.6329   -0.4759   -0.9014 C.ar      1 <0>         0.2219
      5 C4         -1.0339   -1.7355   -0.8902 C.ar      1 <0>        -0.2138
      6 C5         -0.5527   -2.2805   -2.0440 C.ar      1 <0>        -0.0247
      7 C6         -0.6574   -1.5764   -3.2506 C.ar      1 <0>        -0.1750
      8 C7         -1.2608   -0.3067   -3.2668 C.ar      1 <0>         0.1484
      9 C8         -1.7500    0.2333   -2.0905 C.ar      1 <0>        -0.2201
     10 O1         -1.3668    0.3831   -4.4296 O.3       1 <0>        -0.1682
     11 C9         -1.2224    1.7324   -4.3857 C.ar      1 <0>         0.3328
     12 C10        -1.4583    2.4840   -5.5265 C.ar      1 <0>         0.0397
     13 C11        -1.3076    3.8689   -5.4703 C.ar      1 <0>         0.2128
     14 C12        -0.9231    4.4452   -4.2600 C.ar      1 <0>         0.0228
     15 C13        -0.7054    3.6275   -3.1622 C.ar      1 <0>         0.3108
     16 N2         -0.8634    2.3155   -3.2521 N.ar      1 <0>        -0.5257
     17 O2         -0.3308    4.1786   -1.9792 O.3       1 <0>        -0.2217
     18 C14        -0.0582    3.3419   -0.9436 C.ar      1 <0>         0.0955
     19 C15         0.2942    2.0220   -1.1918 C.ar      1 <0>        -0.1204
     20 C16         0.5727    1.1679   -0.1416 C.ar      1 <0>        -0.0741
     21 C17         0.5020    1.6224    1.1603 C.ar      1 <0>        -0.1097
     22 C18         0.1491    2.9455    1.4180 C.ar      1 <0>        -0.0594
     23 C19        -0.1264    3.8075    0.3593 C.ar      1 <0>        -0.1186
     24 C20         0.0719    3.4362    2.8164 C.ar      1 <0>        -0.0107
     25 C21        -0.2866    4.7578    3.0749 C.ar      1 <0>        -0.0817
     26 C22        -0.3572    5.2087    4.3773 C.ar      1 <0>        -0.1077
     27 C23        -0.0725    4.3515    5.4251 C.ar      1 <0>        -0.1023
     28 C24         0.2838    3.0389    5.1742 C.ar      1 <0>        -0.1667
     29 C25         0.3520    2.5758    3.8756 C.ar      1 <0>        -0.0921
     30 C26         0.5926    2.1111    6.3209 C.3       1 <0>         0.0486
     31 N3         -0.6398    1.4369    6.7507 N.4       1 <0>        -0.6374
     32 F1         -0.7645    5.7831   -4.1590 F         1 <0>        -0.1105
     33 N4         -1.5355    4.6591   -6.5977 N.pl3     1 <0>        -0.6662
     34 C27        -0.4483    4.9643   -7.5411 C.3       1 <0>         0.1089
     35 C28        -0.9333    4.6405   -8.9589 C.3       1 <0>         0.0445
     36 O3         -2.1801    5.3000   -9.1920 O.3       1 <0>        -0.3786
     37 C29        -3.2373    4.8753   -8.3284 C.3       1 <0>         0.0448
     38 C30        -2.8716    5.2065   -6.8815 C.3       1 <0>         0.1102
     39 F2         -1.8288    1.8822   -6.6779 F         1 <0>        -0.0970
     40 C31        -0.1389   -2.1618   -4.4928 C.2       1 <0>         0.5186
     41 O4          0.3863   -3.2672   -4.4758 O.co2     1 <0>        -0.6911
     42 O5         -0.2318   -1.5445   -5.5456 O.co2     1 <0>        -0.6710
     43 H1         -1.8343    2.1415    0.4332 H         1 <0>         0.0569
     44 H2         -3.1499    1.6385   -0.6550 H         1 <0>         0.0574
     45 H3         -3.3665    1.5381    1.1088 H         1 <0>         0.0540
     46 H4         -2.5127   -0.1286    2.3309 H         1 <0>         0.0582
     47 H5         -2.7010   -1.6204    1.3784 H         1 <0>         0.0503
     48 H6         -1.0742   -1.0012    1.7500 H         1 <0>         0.0474
     49 H7         -0.9504   -2.2821    0.0375 H         1 <0>         0.1156
     50 H8         -0.0898   -3.2562   -2.0274 H         1 <0>         0.1356
     51 H9         -2.2184    1.2065   -2.0959 H         1 <0>         0.1288
     52 H10         0.3506    1.6617   -2.2083 H         1 <0>         0.1756
     53 H11         0.8460    0.1420   -0.3397 H         1 <0>         0.1321
     54 H12         0.7198    0.9523    1.9788 H         1 <0>         0.1178
     55 H13        -0.3960    4.8350    0.5537 H         1 <0>         0.1316
     56 H14        -0.5084    5.4280    2.2576 H         1 <0>         0.1377
     57 H15        -0.6349    6.2327    4.5788 H         1 <0>         0.1360
     58 H16        -0.1283    4.7087    6.4428 H         1 <0>         0.1296
     59 H17         0.6260    1.5494    3.6810 H         1 <0>         0.1347
     60 H18         1.3210    1.3665    5.9998 H         1 <0>         0.1399
     61 H19         1.0018    2.6848    7.1524 H         1 <0>         0.1394
     62 H20        -0.4331    0.8157    7.5185 H         1 <0>         0.4366
     63 H21        -1.3141    2.1261    7.0480 H         1 <0>         0.4340
     64 H22        -0.1899    6.0211   -7.4740 H         1 <0>         0.0700
     65 H23         0.4249    4.3566   -7.3041 H         1 <0>         0.0832
     66 H24        -0.1968    4.9873   -9.6837 H         1 <0>         0.1049
     67 H25        -1.0664    3.5635   -9.0609 H         1 <0>         0.0614
     68 H26        -4.1584    5.3911   -8.5997 H         1 <0>         0.1036
     69 H27        -3.3788    3.7991   -8.4282 H         1 <0>         0.0593
     70 H28        -3.6024    4.7591   -6.2077 H         1 <0>         0.0802
     71 H29        -2.8614    6.2881   -6.7468 H         1 <0>         0.0691
     72 H30        -1.0186    0.9058    5.9810 H         1 <0>         0.4351
@<TRIPOS>BOND
     1    1    2 1
     2    1   43 1
     3    1   44 1
     4    1   45 1
     5    2    3 1
     6    2    4 1
     7    3   46 1
     8    3   47 1
     9    3   48 1
    10    4    9 ar
    11    4    5 ar
    12    5    6 ar
    13    5   49 1
    14    6    7 ar
    15    6   50 1
    16    7    8 ar
    17    7   40 1
    18    8    9 ar
    19    8   10 1
    20    9   51 1
    21   10   11 1
    22   11   16 ar
    23   11   12 ar
    24   12   13 ar
    25   12   39 1
    26   13   14 ar
    27   13   33 1
    28   14   15 ar
    29   14   32 1
    30   15   16 ar
    31   15   17 1
    32   17   18 1
    33   18   23 ar
    34   18   19 ar
    35   19   20 ar
    36   19   52 1
    37   20   21 ar
    38   20   53 1
    39   21   22 ar
    40   21   54 1
    41   22   23 ar
    42   22   24 1
    43   23   55 1
    44   24   29 ar
    45   24   25 ar
    46   25   26 ar
    47   25   56 1
    48   26   27 ar
    49   26   57 1
    50   27   28 ar
    51   27   58 1
    52   28   29 ar
    53   28   30 1
    54   29   59 1
    55   30   31 1
    56   30   60 1
    57   30   61 1
    58   31   62 1
    59   31   63 1
    60   31   72 1
    61   33   38 1
    62   33   34 1
    63   34   35 1
    64   34   64 1
    65   34   65 1
    66   35   36 1
    67   35   66 1
    68   35   67 1
    69   36   37 1
    70   37   38 1
    71   37   68 1
    72   37   69 1
    73   38   70 1
    74   38   71 1
    75   40   41 2
    76   40   42 1
@<TRIPOS>MOLECULE
CHEMBL227666
   45    47     0     0     0
SMALL
USER_CHARGES

@<TRIPOS>ATOM
      1 C1          0.3145    1.3722   -0.5223 C.ar      1 <0>         0.0330
      2 C2          1.5268    1.9693   -0.7054 C.ar      1 <0>        -0.1339
      3 C3          2.6856    1.1825   -0.7281 C.ar      1 <0>         0.0423
      4 C4          2.5791   -0.2209   -0.5605 C.ar      1 <0>        -0.1385
      5 C5          1.3215   -0.8005   -0.3751 C.ar      1 <0>         0.0495
      6 C6          0.2118   -0.0061   -0.3579 C.ar      1 <0>        -0.6292
      7 S1         -1.3745   -0.7362   -0.1235 S.o2      1 <0>         2.6990
      8 O1         -1.1507   -2.0226    0.4372 O.2       1 <0>        -0.9689
      9 O2         -2.1821    0.2432    0.5152 O.2       1 <0>        -0.9794
     10 N1         -2.0273   -0.9817   -1.6255 N.pl3     1 <0>        -1.0836
     11 C7         -1.3418   -1.8456   -2.5899 C.3       1 <0>         0.1045
     12 C8         -0.8680   -3.1220   -1.8880 C.3       1 <0>        -0.1616
     13 C9         -2.0856   -3.8942   -1.3735 C.3       1 <0>         0.0714
     14 O3         -2.9583   -4.1879   -2.4663 O.3       1 <0>        -0.3899
     15 C10        -3.4705   -3.0312   -3.1311 C.3       1 <0>         0.0631
     16 C11        -2.3085   -2.2242   -3.7162 C.3       1 <0>        -0.1331
     17 C12        -0.1564   -1.1157   -3.1670 C.2       1 <0>         0.4864
     18 O4          0.0112    0.0664   -2.9195 O.co2     1 <0>        -0.6687
     19 O5          0.6349   -1.7071   -3.8814 O.co2     1 <0>        -0.6787
     20 C13         3.8075   -1.0138   -0.5887 C.ar      1 <0>         0.4278
     21 N2          4.9673   -0.3943   -0.7688 N.ar      1 <0>        -0.5216
     22 C14         5.0557    0.9184   -0.9246 C.ar      1 <0>         0.1291
     23 C15         3.9689    1.7362   -0.9127 C.ar      1 <0>        -0.1217
     24 Cl1         4.1605    3.4487   -1.1237 Cl        1 <0>        -0.0673
     25 N3          3.7622   -2.3636   -0.4325 N.2       1 <0>        -0.6158
     26 C16         3.7620   -2.8870    0.7761 C.2       1 <0>         0.6800
     27 N4          3.7049   -2.0721    1.8751 N.pl3     1 <0>        -0.8780
     28 N5          3.8188   -4.2461    0.9336 N.pl3     1 <0>        -0.8328
     29 H1         -0.5790    1.9785   -0.5001 H         1 <0>         0.1304
     30 H2          1.5929    3.0398   -0.8322 H         1 <0>         0.1332
     31 H3          1.2281   -1.8687   -0.2467 H         1 <0>         0.1374
     32 H4         -2.8636   -0.5534   -1.8668 H         1 <0>         0.4094
     33 H5         -0.3150   -3.7419   -2.5937 H         1 <0>         0.0886
     34 H6         -0.2228   -2.8587   -1.0498 H         1 <0>         0.0862
     35 H7         -1.7569   -4.8247   -0.9107 H         1 <0>         0.0880
     36 H8         -2.6154   -3.2893   -0.6377 H         1 <0>         0.0526
     37 H9         -4.1394   -3.3399   -3.9344 H         1 <0>         0.0876
     38 H10        -4.0184   -2.4150   -2.4182 H         1 <0>         0.0449
     39 H11        -2.6936   -1.3189   -4.1854 H         1 <0>         0.0715
     40 H12        -1.7846   -2.8260   -4.4588 H         1 <0>         0.0873
     41 H13         6.0320    1.3577   -1.0670 H         1 <0>         0.1541
     42 H14         3.5909   -1.1153    1.7640 H         1 <0>         0.4132
     43 H15         3.7785   -2.4518    2.7647 H         1 <0>         0.3988
     44 H16         3.8592   -4.8233    0.1551 H         1 <0>         0.4248
     45 H17         3.8186   -4.6316    1.8237 H         1 <0>         0.4086
@<TRIPOS>BOND
     1    1    6 ar
     2    1    2 ar
     3    1   29 1
     4    2    3 ar
     5    2   30 1
     6    3   23 ar
     7    3    4 ar
     8    4    5 ar
     9    4   20 ar
    10    5    6 ar
    11    5   31 1
    12    6    7 1
    13    7    8 2
    14    7    9 2
    15    7   10 1
    16   10   11 1
    17   10   32 1
    18   11   16 1
    19   11   12 1
    20   11   17 1
    21   12   13 1
    22   12   33 1
    23   12   34 1
    24   13   14 1
    25   13   35 1
    26   13   36 1
    27   14   15 1
    28   15   16 1
    29   15   37 1
    30   15   38 1
    31   16   39 1
    32   16   40 1
    33   17   18 2
    34   17   19 1
    35   20   21 ar
    36   20   25 1
    37   21   22 ar
    38   22   23 ar
    39   22   41 1
    40   23   24 1
    41   25   26 2
    42   26   27 1
    43   26   28 1
    44   27   42 1
    45   27   43 1
    46   28   44 1
    47   28   45 1
@<TRIPOS>MOLECULE
CHEMBL228172
   44    46     0     0     0
SMALL
USER_CHARGES

@<TRIPOS>ATOM
      1 C1         -0.0194    1.3950    0.0234 C.ar      1 <0>        -0.1285
      2 C2          1.0179    1.8657   -0.7607 C.ar      1 <0>        -0.1188
      3 C3          2.2256    1.1962   -0.7854 C.ar      1 <0>        -0.1263
      4 C4          2.3977    0.0489   -0.0215 C.ar      1 <0>         0.1611
      5 C5          1.3536   -0.4212    0.7650 C.ar      1 <0>        -0.0841
      6 C6          0.1485    0.2531    0.7850 C.ar      1 <0>        -0.1134
      7 N1          3.6176   -0.6308   -0.0445 N.pl3     1 <0>        -0.9171
      8 C7          4.8451    0.0530    0.3701 C.3       1 <0>         0.0531
      9 C8          4.9885   -0.0361    1.8677 C.2       1 <0>         0.4879
     10 O1          4.1436   -0.6170    2.5274 O.co2     1 <0>        -0.6769
     11 O2          5.9493    0.4727    2.4194 O.co2     1 <0>        -0.6972
     12 S1          3.6765   -2.2097   -0.5404 S.o2      1 <0>         2.6863
     13 O3          4.7630   -2.8120    0.1497 O.2       1 <0>        -0.9374
     14 O4          2.3495   -2.7112   -0.4576 O.2       1 <0>        -0.9522
     15 C9          4.1068   -2.2034   -2.2491 C.ar      1 <0>        -0.6865
     16 C10         3.1002   -2.1462   -3.2093 C.ar      1 <0>        -0.0032
     17 C11         3.3984   -2.1402   -4.5396 C.ar      1 <0>        -0.1372
     18 C12         4.7388   -2.1918   -4.9455 C.ar      1 <0>         0.0376
     19 C13         5.7620   -2.2495   -3.9666 C.ar      1 <0>        -0.1474
     20 C14         5.4215   -2.2490   -2.6110 C.ar      1 <0>         0.0516
     21 C15         7.1501   -2.3020   -4.4225 C.ar      1 <0>         0.4328
     22 N2          7.3981   -2.2937   -5.7265 N.ar      1 <0>        -0.5241
     23 C16         6.4342   -2.2396   -6.6332 C.ar      1 <0>         0.1412
     24 C17         5.1151   -2.1883   -6.3036 C.ar      1 <0>        -0.1296
     25 Cl1         3.9050   -2.1194   -7.5464 Cl        1 <0>        -0.0580
     26 N3          8.1703   -2.3580   -3.5256 N.2       1 <0>        -0.6323
     27 C18         8.6863   -3.5215   -3.1869 C.2       1 <0>         0.6936
     28 N4          8.1273   -4.6807   -3.6547 N.pl3     1 <0>        -0.8738
     29 N5          9.7818   -3.5719   -2.3669 N.pl3     1 <0>        -0.8278
     30 H1         -0.9614    1.9229    0.0443 H         1 <0>         0.1186
     31 H2          0.8833    2.7576   -1.3547 H         1 <0>         0.1203
     32 H3          3.0352    1.5642   -1.3983 H         1 <0>         0.1219
     33 H4          1.4840   -1.3131    1.3599 H         1 <0>         0.1325
     34 H5         -0.6637   -0.1119    1.3963 H         1 <0>         0.1234
     35 H6          5.7036   -0.4209   -0.1059 H         1 <0>         0.0780
     36 H7          4.7963    1.1001    0.0715 H         1 <0>         0.0798
     37 H8          2.0676   -2.1064   -2.8956 H         1 <0>         0.1449
     38 H9          2.6083   -2.0963   -5.2746 H         1 <0>         0.1426
     39 H10         6.1928   -2.2887   -1.8561 H         1 <0>         0.1508
     40 H11         6.7067   -2.2361   -7.6783 H         1 <0>         0.1589
     41 H12         7.3984   -4.6442   -4.2938 H         1 <0>         0.4131
     42 H13         8.4601   -5.5383   -3.3471 H         1 <0>         0.4027
     43 H14        10.1778   -2.7508   -2.0355 H         1 <0>         0.4274
     44 H15        10.1619   -4.4288   -2.1174 H         1 <0>         0.4119
@<TRIPOS>BOND
     1    1    6 ar
     2    1    2 ar
     3    1   30 1
     4    2    3 ar
     5    2   31 1
     6    3    4 ar
     7    3   32 1
     8    4    5 ar
     9    4    7 1
    10    5    6 ar
    11    5   33 1
    12    6   34 1
    13    7    8 1
    14    7   12 1
    15    8    9 1
    16    8   35 1
    17    8   36 1
    18    9   10 2
    19    9   11 1
    20   12   13 2
    21   12   14 2
    22   12   15 1
    23   15   20 ar
    24   15   16 ar
    25   16   17 ar
    26   16   37 1
    27   17   18 ar
    28   17   38 1
    29   18   24 ar
    30   18   19 ar
    31   19   20 ar
    32   19   21 ar
    33   20   39 1
    34   21   22 ar
    35   21   26 1
    36   22   23 ar
    37   23   24 ar
    38   23   40 1
    39   24   25 1
    40   26   27 2
    41   27   28 1
    42   27   29 1
    43   28   41 1
    44   28   42 1
    45   29   43 1
    46   29   44 1
@<TRIPOS>MOLECULE
CHEMBL300030
   30    31     0     0     0
SMALL
USER_CHARGES

@<TRIPOS>ATOM
      1 C1          0.0267    1.4129   -0.0575 C.ar      1 <0>        -0.1095
      2 C2          1.2169    2.1189   -0.0655 C.ar      1 <0>        -0.1180
      3 C3          2.4212    1.4470   -0.0701 C.ar      1 <0>        -0.0932
      4 C4          2.4377    0.0494   -0.0662 C.ar      1 <0>         0.0152
      5 C5          1.2315   -0.6568   -0.0576 C.ar      1 <0>        -0.0954
      6 C6          0.0350    0.0290   -0.0535 C.ar      1 <0>        -0.1193
      7 C7          3.6841   -0.6555   -0.0714 C.1       1 <0>        -0.1106
      8 C8          4.7060   -1.2334   -0.0757 C.1       1 <0>        -0.0974
      9 C9          5.9525   -1.9383   -0.0809 C.ar      1 <0>        -0.0576
     10 C10         7.1654   -1.2416   -0.0841 C.ar      1 <0>        -0.0274
     11 C11         8.3441   -1.9703   -0.0886 C.ar      1 <0>        -0.1206
     12 C12         8.2931   -3.3538   -0.0899 C.ar      1 <0>         0.1481
     13 N1          7.1419   -3.9966   -0.0868 N.ar      1 <0>        -0.4942
     14 C13         5.9808   -3.3505   -0.0770 C.ar      1 <0>         0.3873
     15 N2          4.8142   -4.0523   -0.0682 N.2       1 <0>        -0.6305
     16 C14         4.3139   -4.4831    1.0703 C.2       1 <0>         0.6868
     17 N3          4.9073   -4.1341    2.2550 N.pl3     1 <0>        -0.8757
     18 N4          3.1998   -5.2806    1.0710 N.pl3     1 <0>        -0.8331
     19 Cl1         9.8758   -1.1531   -0.0932 Cl        1 <0>        -0.0527
     20 H1         -0.9134    1.9445   -0.0497 H         1 <0>         0.1267
     21 H2          1.2025    3.1988   -0.0685 H         1 <0>         0.1292
     22 H3          3.3492    1.9994   -0.0771 H         1 <0>         0.1273
     23 H4          1.2365   -1.7368   -0.0549 H         1 <0>         0.1244
     24 H5         -0.8978   -0.5153   -0.0469 H         1 <0>         0.1282
     25 H6          7.1828   -0.1618   -0.0833 H         1 <0>         0.1475
     26 H7          9.2143   -3.9175   -0.0938 H         1 <0>         0.1675
     27 H8          5.6492   -3.5094    2.2603 H         1 <0>         0.4120
     28 H9          2.7797   -5.5277    0.2323 H         1 <0>         0.4243
     29 H10         2.8311   -5.5981    1.9101 H         1 <0>         0.4103
     30 H11         4.5853   -4.5119    3.0884 H         1 <0>         0.4007
@<TRIPOS>BOND
     1    1    6 ar
     2    1    2 ar
     3    1   20 1
     4    2    3 ar
     5    2   21 1
     6    3    4 ar
     7    3   22 1
     8    4    5 ar
     9    4    7 1
    10    5    6 ar
    11    5   23 1
    12    6   24 1
    13    7    8 3
    14    8    9 1
    15    9   14 ar
    16    9   10 ar
    17   10   11 ar
    18   10   25 1
    19   11   12 ar
    20   11   19 1
    21   12   13 ar
    22   12   26 1
    23   13   14 ar
    24   14   15 1
    25   15   16 2
    26   16   17 1
    27   16   18 1
    28   17   27 1
    29   17   30 1
    30   18   28 1
    31   18   29 1
@<TRIPOS>MOLECULE
CHEMBL300030__1
   30    31     0     0     0
SMALL
USER_CHARGES

@<TRIPOS>ATOM
      1 C1          0.2454    1.5509   -0.5016 C.ar      1 <0>        -0.1047
      2 C2          1.3310    2.1087   -1.1537 C.ar      1 <0>        -0.1179
      3 C3          2.4524    1.3474   -1.4085 C.ar      1 <0>        -0.0931
      4 C4          2.4907    0.0096   -1.0060 C.ar      1 <0>         0.0031
      5 C5          1.3906   -0.5466   -0.3475 C.ar      1 <0>        -0.0909
      6 C6          0.2760    0.2270   -0.1001 C.ar      1 <0>        -0.1180
      7 C7          3.6513   -0.7875   -1.2673 C.1       1 <0>        -0.0886
      8 C8          4.6028   -1.4409   -1.4816 C.1       1 <0>        -0.1283
      9 C9          5.7634   -2.2380   -1.7430 C.ar      1 <0>        -0.0650
     10 C10         6.8724   -1.6889   -2.3970 C.ar      1 <0>        -0.0037
     11 C11         7.9703   -2.5023   -2.6254 C.ar      1 <0>        -0.1305
     12 C12         7.9401   -3.8204   -2.2051 C.ar      1 <0>         0.1700
     13 N1          6.8838   -4.3176   -1.5902 N.ar      1 <0>        -0.5014
     14 C13         5.8119   -3.5839   -1.3424 C.ar      1 <0>         0.4059
     15 N2          4.7240   -4.1493   -0.6865 N.pl3     1 <0>        -0.6761
     16 C14         4.8132   -5.4271   -0.1799 C.2       1 <0>         0.6374
     17 N3          3.7562   -6.0073    0.3143 N.2       1 <0>        -0.7835
     18 N4          6.0175   -6.0903   -0.1956 N.pl3     1 <0>        -0.8330
     19 Cl1         9.3725   -1.8732   -3.4328 Cl        1 <0>        -0.0448
     20 H1         -0.6285    2.1531   -0.3012 H         1 <0>         0.1285
     21 H2          1.3000    3.1426   -1.4642 H         1 <0>         0.1308
     22 H3          3.2987    1.7838   -1.9181 H         1 <0>         0.1268
     23 H4          1.4130   -1.5798   -0.0339 H         1 <0>         0.1284
     24 H5         -0.5750   -0.2015    0.4084 H         1 <0>         0.1307
     25 H6          6.8720   -0.6571   -2.7158 H         1 <0>         0.1536
     26 H7          8.7964   -4.4537   -2.3840 H         1 <0>         0.1773
     27 H8          3.9022   -3.6438   -0.5856 H         1 <0>         0.4225
     28 H9          6.8429   -5.6004   -0.0554 H         1 <0>         0.4123
     29 H10         6.0418   -7.0482   -0.3469 H         1 <0>         0.4115
     30 H11         2.9066   -5.5394    0.3254 H         1 <0>         0.3409
@<TRIPOS>BOND
     1    1    6 ar
     2    1    2 ar
     3    1   20 1
     4    2    3 ar
     5    2   21 1
     6    3    4 ar
     7    3   22 1
     8    4    5 ar
     9    4    7 1
    10    5    6 ar
    11    5   23 1
    12    6   24 1
    13    7    8 3
    14    8    9 1
    15    9   14 ar
    16    9   10 ar
    17   10   11 ar
    18   10   25 1
    19   11   12 ar
    20   11   19 1
    21   12   13 ar
    22   12   26 1
    23   13   14 ar
    24   14   15 1
    25   15   16 1
    26   15   27 1
    27   16   17 2
    28   16   18 1
    29   17   30 1
    30   18   28 1
    31   18   29 1
@<TRIPOS>MOLECULE
CHEMBL433809
   70    72     0     0     0
SMALL
USER_CHARGES

@<TRIPOS>ATOM
      1 C1          1.6553    3.8402   -0.8247 C.ar      1 <0>        -0.1052
      2 C2          3.0259    4.0179   -0.8515 C.ar      1 <0>        -0.1236
      3 C3          3.8668    2.9284   -0.7223 C.ar      1 <0>        -0.0944
      4 C4          3.3372    1.6612   -0.5657 C.ar      1 <0>        -0.1033
      5 C5          1.9666    1.4836   -0.5380 C.ar      1 <0>        -0.0922
      6 C6          1.1256    2.5729   -0.6686 C.ar      1 <0>        -0.1216
      7 C7          4.2539    0.4733   -0.4258 C.3       1 <0>         0.1291
      8 O1          4.5502    0.2604    0.9558 O.3       1 <0>        -0.3549
      9 C8          5.3630   -0.7705    1.2548 C.2       1 <0>         0.6529
     10 O2          5.8087   -1.4701    0.3669 O.2       1 <0>        -0.5703
     11 N1          5.6823   -1.0263    2.5390 N.am      1 <0>        -0.6879
     12 C9          6.5668   -2.1480    2.8643 C.3       1 <0>         0.1536
     13 H1          7.3171   -2.2580    2.0813 H         1 <0>         0.1260
     14 C10         5.7436   -3.4336    2.9663 C.3       1 <0>         0.0646
     15 O3          4.8531   -3.3419    4.0801 O.3       1 <0>        -0.5567
     16 C11         7.2501   -1.8833    4.1812 C.2       1 <0>         0.5264
     17 O4          6.8191   -1.0297    4.9273 O.2       1 <0>        -0.4933
     18 N2          8.3402   -2.5950    4.5298 N.am      1 <0>        -0.6003
     19 C12         8.9480   -3.5436    3.5866 C.3       1 <0>         0.1004
     20 C13         9.0640   -4.9106    4.2681 C.3       1 <0>        -0.1405
     21 C14         9.8286   -4.7565    5.5849 C.3       1 <0>        -0.1188
     22 C15         9.0598   -3.8162    6.5161 C.3       1 <0>        -0.1232
     23 C16         8.9470   -2.4326    5.8580 C.3       1 <0>         0.1357
     24 H2          9.9386   -1.9919    5.7553 H         1 <0>         0.0819
     25 C17         8.0785   -1.5379    6.7042 C.2       1 <0>         0.5361
     26 O5          6.9383   -1.8637    6.9585 O.2       1 <0>        -0.4920
     27 N3          8.5688   -0.3755    7.1785 N.am      1 <0>        -0.7241
     28 C18         7.7245    0.4944    8.0011 C.3       1 <0>         0.1516
     29 H3          7.0686   -0.1163    8.6216 H         1 <0>         0.1191
     30 C19         6.8797    1.3922    7.0943 C.3       1 <0>        -0.1356
     31 C20         7.7994    2.2258    6.1991 C.3       1 <0>        -0.1314
     32 C21         8.6850    3.1186    7.0740 C.3       1 <0>         0.1083
     33 N4          9.3925    2.2749    8.0467 N.pl3     1 <0>        -0.6341
     34 C22         8.6093    1.3669    8.8970 C.3       1 <0>         0.3170
     35 O6          9.4924    0.5361    9.6533 O.3       1 <0>        -0.5452
     36 C23        10.7545    2.3327    8.1589 C.cat     1 <0>         0.7422
     37 N5         11.4520    1.2206    8.3844 N.pl3     1 <0>        -0.7833
     38 N6         11.3833    3.5011    8.0425 N.pl3     1 <0>        -0.7849
     39 H4          0.9983    4.6919   -0.9211 H         1 <0>         0.1266
     40 H5          3.4397    5.0080   -0.9738 H         1 <0>         0.1264
     41 H6          4.9377    3.0672   -0.7439 H         1 <0>         0.1232
     42 H7          1.5527    0.4935   -0.4161 H         1 <0>         0.1253
     43 H8          0.0548    2.4340   -0.6474 H         1 <0>         0.1279
     44 H9          3.7662   -0.4121   -0.8335 H         1 <0>         0.0803
     45 H10         5.1789    0.6620   -0.9708 H         1 <0>         0.0793
     46 H11         5.3266   -0.4678    3.2478 H         1 <0>         0.4193
     47 H12         5.1677   -3.5698    2.0509 H         1 <0>         0.0680
     48 H13         6.4123   -4.2832    3.1047 H         1 <0>         0.0634
     49 H14         4.2985   -4.1241    4.2056 H         1 <0>         0.3861
     50 H15         8.3205   -3.6296    2.6995 H         1 <0>         0.0917
     51 H16         9.9397   -3.1916    3.3025 H         1 <0>         0.0801
     52 H17         8.0671   -5.3023    4.4700 H         1 <0>         0.0735
     53 H18         9.6002   -5.5986    3.6145 H         1 <0>         0.0859
     54 H19         9.9340   -5.7318    6.0600 H         1 <0>         0.0776
     55 H20        10.8165   -4.3416    5.3848 H         1 <0>         0.0673
     56 H21         8.0628   -4.2182    6.6968 H         1 <0>         0.0848
     57 H22         9.5929   -3.7253    7.4624 H         1 <0>         0.0787
     58 H23         9.4808   -0.1148    6.9751 H         1 <0>         0.3824
     59 H24         6.2313    0.7740    6.4734 H         1 <0>         0.1086
     60 H25         6.2700    2.0563    7.7070 H         1 <0>         0.0797
     61 H26         8.4269    1.5623    5.6040 H         1 <0>         0.0752
     62 H27         7.1967    2.8479    5.5373 H         1 <0>         0.0970
     63 H28         9.4089    3.6406    6.4483 H         1 <0>         0.0948
     64 H29         8.0651    3.8434    7.6016 H         1 <0>         0.0995
     65 H30         7.9831    1.9490    9.5733 H         1 <0>         0.1198
     66 H31        10.0167    1.0146   10.3099 H         1 <0>         0.3934
     67 H32        11.0047    0.3600    8.3883 H         1 <0>         0.4441
     68 H33        10.8718    4.3206    7.9553 H         1 <0>         0.4412
     69 H34        12.3528    3.5325    8.0450 H         1 <0>         0.4377
     70 H35        12.4073    1.2714    8.5448 H         1 <0>         0.4332
@<TRIPOS>BOND
     1    1    6 ar
     2    1    2 ar
     3    1   39 1
     4    2    3 ar
     5    2   40 1
     6    3    4 ar
     7    3   41 1
     8    4    5 ar
     9    4    7 1
    10    5    6 ar
    11    5   42 1
    12    6   43 1
    13    7    8 1
    14    7   44 1
    15    7   45 1
    16    8    9 1
    17    9   10 2
    18    9   11 am
    19   11   12 1
    20   11   46 1
    21   12   13 1
    22   12   14 1
    23   12   16 1
    24   14   15 1
    25   14   47 1
    26   14   48 1
    27   15   49 1
    28   16   17 2
    29   16   18 am
    30   18   23 1
    31   18   19 1
    32   19   20 1
    33   19   50 1
    34   19   51 1
    35   20   21 1
    36   20   52 1
    37   20   53 1
    38   21   22 1
    39   21   54 1
    40   21   55 1
    41   22   23 1
    42   22   56 1
    43   22   57 1
    44   23   24 1
    45   23   25 1
    46   25   26 2
    47   25   27 am
    48   27   28 1
    49   27   58 1
    50   28   29 1
    51   28   34 1
    52   28   30 1
    53   30   31 1
    54   30   59 1
    55   30   60 1
    56   31   32 1
    57   31   61 1
    58   31   62 1
    59   32   33 1
    60   32   63 1
    61   32   64 1
    62   33   34 1
    63   33   36 1
    64   34   35 1
    65   34   65 1
    66   35   66 1
    67   36   37 2
    68   36   38 1
    69   37   67 1
    70   37   70 1
    71   38   68 1
    72   38   69 1
@<TRIPOS>MOLECULE
CHEMBL433809__1
   70    72     0     0     0
SMALL
USER_CHARGES

@<TRIPOS>ATOM
      1 C1          3.9244    3.7264   -0.8623 C.ar      1 <0>        -0.1058
      2 C2          5.1811    4.1989   -0.5329 C.ar      1 <0>        -0.1235
      3 C3          6.2510    3.3265   -0.4626 C.ar      1 <0>        -0.0939
      4 C4          6.0643    1.9815   -0.7212 C.ar      1 <0>        -0.1027
      5 C5          4.8075    1.5088   -1.0496 C.ar      1 <0>        -0.0927
      6 C6          3.7378    2.3814   -1.1213 C.ar      1 <0>        -0.1223
      7 C7          7.2310    1.0306   -0.6455 C.3       1 <0>         0.1287
      8 O1          7.3401    0.5153    0.6829 O.3       1 <0>        -0.3553
      9 C8          8.3394   -0.3550    0.9208 C.2       1 <0>         0.6530
     10 O2          9.0981   -0.6685    0.0250 O.2       1 <0>        -0.5699
     11 N1          8.4982   -0.8786    2.1525 N.am      1 <0>        -0.6880
     12 C9          9.5855   -1.8256    2.4113 C.3       1 <0>         0.1529
     13 H1         10.4568   -1.5495    1.8174 H         1 <0>         0.1266
     14 C10         9.1344   -3.2369    2.0295 C.3       1 <0>         0.0661
     15 O3          8.0817   -3.6528    2.9019 O.3       1 <0>        -0.5567
     16 C11         9.9438   -1.7914    3.8747 C.2       1 <0>         0.5267
     17 O4          9.1578   -1.3409    4.6811 O.2       1 <0>        -0.4954
     18 N2         11.1376   -2.2615    4.2874 N.am      1 <0>        -0.6002
     19 C12        12.1492   -2.6937    3.3135 C.3       1 <0>         0.1001
     20 C13        12.5882   -4.1202    3.6586 C.3       1 <0>        -0.1396
     21 C14        13.0570   -4.1672    5.1147 C.3       1 <0>        -0.1196
     22 C15        11.8990   -3.7815    6.0380 C.3       1 <0>        -0.1215
     23 C16        11.4544   -2.3459    5.7197 C.3       1 <0>         0.1345
     24 H2         12.2589   -1.6500    5.9575 H         1 <0>         0.0894
     25 C17        10.2302   -2.0030    6.5289 C.2       1 <0>         0.5403
     26 O5          9.2227   -2.6688    6.4163 O.2       1 <0>        -0.5000
     27 N3         10.2549   -0.9564    7.3777 N.am      1 <0>        -0.7255
     28 C18         9.0649   -0.6230    8.1644 C.3       1 <0>         0.1544
     29 H3          8.5430   -1.5392    8.4407 H         1 <0>         0.1019
     30 C19         8.1349    0.2637    7.3331 C.3       1 <0>        -0.1353
     31 C20         6.8763    0.5855    8.1421 C.3       1 <0>        -0.1367
     32 C21         7.2703    1.3518    9.4087 C.3       1 <0>         0.1070
     33 N4          8.2750    0.5692   10.1415 N.pl3     1 <0>        -0.6300
     34 C22         9.4838    0.1288    9.4317 C.3       1 <0>         0.3190
     35 O6         10.2453   -0.7388   10.2738 O.3       1 <0>        -0.5446
     36 C23         8.0888    0.2564   11.4601 C.cat     1 <0>         0.7444
     37 N5          7.5052    1.1322   12.2764 N.pl3     1 <0>        -0.7856
     38 N6          8.4911   -0.9241   11.9277 N.pl3     1 <0>        -0.7817
     39 H4          3.0876    4.4072   -0.9129 H         1 <0>         0.1262
     40 H5          5.3270    5.2498   -0.3309 H         1 <0>         0.1266
     41 H6          7.2329    3.6959   -0.2060 H         1 <0>         0.1241
     42 H7          4.6617    0.4580   -1.2520 H         1 <0>         0.1251
     43 H8          2.7560    2.0121   -1.3783 H         1 <0>         0.1274
     44 H9          7.0747    0.2075   -1.3427 H         1 <0>         0.0802
     45 H10         8.1479    1.5589   -0.9067 H         1 <0>         0.0799
     46 H11         7.8925   -0.6283    2.8677 H         1 <0>         0.4187
     47 H12         8.7751   -3.2375    1.0005 H         1 <0>         0.0678
     48 H13         9.9753   -3.9244    2.1213 H         1 <0>         0.0634
     49 H14         7.7458   -4.5406    2.7175 H         1 <0>         0.3848
     50 H15        11.7224   -2.6752    2.3107 H         1 <0>         0.0913
     51 H16        13.0093   -2.0256    3.3592 H         1 <0>         0.0818
     52 H17        11.7481   -4.8018    3.5247 H         1 <0>         0.0721
     53 H18        13.4066   -4.4176    3.0031 H         1 <0>         0.0858
     54 H19        13.3930   -5.1758    5.3556 H         1 <0>         0.0766
     55 H20        13.8809   -3.4673    5.2537 H         1 <0>         0.0693
     56 H21        11.0655   -4.4663    5.8816 H         1 <0>         0.0822
     57 H22        12.2270   -3.8378    7.0759 H         1 <0>         0.0788
     58 H23        11.0607   -0.4239    7.4678 H         1 <0>         0.3984
     59 H24         8.6491    1.1902    7.0776 H         1 <0>         0.0728
     60 H25         7.8550   -0.2601    6.4191 H         1 <0>         0.1096
     61 H26         6.2040    1.1976    7.5409 H         1 <0>         0.1025
     62 H27         6.3748   -0.3418    8.4191 H         1 <0>         0.0788
     63 H28         7.6898    2.3197    9.1346 H         1 <0>         0.0999
     64 H29         6.3911    1.4968   10.0364 H         1 <0>         0.0975
     65 H30        10.0841    0.9971    9.1598 H         1 <0>         0.1082
     66 H31        10.5438   -0.3266   11.0961 H         1 <0>         0.3906
     67 H32         7.2122    1.9919   11.9358 H         1 <0>         0.4403
     68 H33         8.8172   -1.6025   11.3159 H         1 <0>         0.4489
     69 H34         8.4580   -1.1054   12.8800 H         1 <0>         0.4330
     70 H35         7.3731    0.9104   13.2114 H         1 <0>         0.4386
@<TRIPOS>BOND
     1    1    6 ar
     2    1    2 ar
     3    1   39 1
     4    2    3 ar
     5    2   40 1
     6    3    4 ar
     7    3   41 1
     8    4    5 ar
     9    4    7 1
    10    5    6 ar
    11    5   42 1
    12    6   43 1
    13    7    8 1
    14    7   44 1
    15    7   45 1
    16    8    9 1
    17    9   10 2
    18    9   11 am
    19   11   12 1
    20   11   46 1
    21   12   13 1
    22   12   14 1
    23   12   16 1
    24   14   15 1
    25   14   47 1
    26   14   48 1
    27   15   49 1
    28   16   17 2
    29   16   18 am
    30   18   23 1
    31   18   19 1
    32   19   20 1
    33   19   50 1
    34   19   51 1
    35   20   21 1
    36   20   52 1
    37   20   53 1
    38   21   22 1
    39   21   54 1
    40   21   55 1
    41   22   23 1
    42   22   56 1
    43   22   57 1
    44   23   24 1
    45   23   25 1
    46   25   26 2
    47   25   27 am
    48   27   28 1
    49   27   58 1
    50   28   29 1
    51   28   34 1
    52   28   30 1
    53   30   31 1
    54   30   59 1
    55   30   60 1
    56   31   32 1
    57   31   61 1
    58   31   62 1
    59   32   33 1
    60   32   63 1
    61   32   64 1
    62   33   34 1
    63   33   36 1
    64   34   35 1
    65   34   65 1
    66   35   66 1
    67   36   37 2
    68   36   38 1
    69   37   67 1
    70   37   70 1
    71   38   68 1
    72   38   69 1
@<TRIPOS>MOLECULE
CHEMBL228051
   38    40     0     0     0
SMALL
USER_CHARGES

@<TRIPOS>ATOM
      1 C1         -0.0745    1.3274    0.0932 C.ar      1 <0>        -0.0073
      2 C2          1.0728    2.0639    0.0603 C.ar      1 <0>        -0.1342
      3 C3          2.3105    1.4091    0.0179 C.ar      1 <0>         0.0371
      4 C4          2.3501   -0.0077    0.0099 C.ar      1 <0>        -0.1490
      5 C5          1.1557   -0.7318    0.0444 C.ar      1 <0>         0.0494
      6 C6         -0.0337   -0.0638    0.0852 C.ar      1 <0>        -0.6867
      7 S1         -1.5404   -0.9763    0.1293 S.o2      1 <0>         2.7068
      8 O1         -1.2255   -2.2546    0.6642 O.2       1 <0>        -0.9556
      9 O2         -2.5144   -0.1240    0.7157 O.2       1 <0>        -0.9541
     10 N1         -2.0098   -1.2224   -1.4396 N.pl3     1 <0>        -1.0403
     11 C7         -2.8328   -0.5035   -2.4239 C.3       1 <0>         0.1474
     12 C8         -3.1337   -1.8577   -3.0808 C.3       1 <0>        -0.1810
     13 C9         -1.7818   -2.2527   -2.4640 C.3       1 <0>         0.1496
     14 C10        -3.1366   -1.8265   -4.5875 C.2       1 <0>         0.5064
     15 O3         -2.8178   -2.8199   -5.2184 O.co2     1 <0>        -0.6923
     16 O4         -3.4578   -0.8079   -5.1755 O.co2     1 <0>        -0.6896
     17 C11         3.6578   -0.6607   -0.0342 C.ar      1 <0>         0.4317
     18 N2          4.7503    0.0922   -0.0648 N.ar      1 <0>        -0.5200
     19 C12         4.7022    1.4161   -0.0570 C.ar      1 <0>         0.1404
     20 C13         3.5331    2.1102   -0.0171 C.ar      1 <0>        -0.1278
     21 Cl1         3.5464    3.8461   -0.0099 Cl        1 <0>        -0.0557
     22 N3          3.7528   -2.0169   -0.0432 N.2       1 <0>        -0.6352
     23 C14         3.6849   -2.6742   -1.1824 C.2       1 <0>         0.6903
     24 N4          3.6368   -1.9885   -2.3668 N.pl3     1 <0>        -0.8731
     25 N5          3.6625   -4.0434   -1.1826 N.pl3     1 <0>        -0.8289
     26 H1         -1.0290    1.8313    0.1305 H         1 <0>         0.1453
     27 H2          1.0276    3.1429    0.0664 H         1 <0>         0.1434
     28 H3          1.1736   -1.8116    0.0383 H         1 <0>         0.1478
     29 H4         -3.7116   -0.0269   -1.9895 H         1 <0>         0.0756
     30 H5         -2.2588    0.1699   -3.0605 H         1 <0>         0.0864
     31 H6         -3.9917   -2.3794   -2.6567 H         1 <0>         0.0994
     32 H7         -0.9308   -2.0405   -3.1112 H         1 <0>         0.0786
     33 H8         -1.7653   -3.2665   -2.0638 H         1 <0>         0.0764
     34 H9          5.6304    1.9675   -0.0835 H         1 <0>         0.1599
     35 H10         3.7302   -1.0231   -2.3724 H         1 <0>         0.4140
     36 H11         3.5092   -2.4683   -3.2001 H         1 <0>         0.4054
     37 H12         3.6966   -4.5291   -0.3437 H         1 <0>         0.4257
     38 H13         3.6125   -4.5276   -2.0216 H         1 <0>         0.4139
@<TRIPOS>BOND
     1    1    6 ar
     2    1    2 ar
     3    1   26 1
     4    2    3 ar
     5    2   27 1
     6    3   20 ar
     7    3    4 ar
     8    4    5 ar
     9    4   17 ar
    10    5    6 ar
    11    5   28 1
    12    6    7 1
    13    7    8 2
    14    7    9 2
    15    7   10 1
    16   10   13 1
    17   10   11 1
    18   11   12 1
    19   11   29 1
    20   11   30 1
    21   12   13 1
    22   12   14 1
    23   12   31 1
    24   13   32 1
    25   13   33 1
    26   14   15 2
    27   14   16 1
    28   17   18 ar
    29   17   22 1
    30   18   19 ar
    31   19   20 ar
    32   19   34 1
    33   20   21 1
    34   22   23 2
    35   23   24 1
    36   23   25 1
    37   24   35 1
    38   24   36 1
    39   25   37 1
    40   25   38 1
@<TRIPOS>MOLECULE
CHEMBL227990
   41    43     0     0     0
SMALL
USER_CHARGES

@<TRIPOS>ATOM
      1 C1         -0.0745    1.3274    0.0932 C.ar      1 <0>        -0.0077
      2 C2          1.0728    2.0639    0.0603 C.ar      1 <0>        -0.1391
      3 C3          2.3105    1.4091    0.0179 C.ar      1 <0>         0.0364
      4 C4          2.3501   -0.0077    0.0099 C.ar      1 <0>        -0.1496
      5 C5          1.1557   -0.7318    0.0444 C.ar      1 <0>         0.0530
      6 C6         -0.0337   -0.0638    0.0853 C.ar      1 <0>        -0.6891
      7 S1         -1.5404   -0.9764    0.1293 S.o2      1 <0>         2.7059
      8 O1         -1.2255   -2.2546    0.6642 O.2       1 <0>        -0.9237
      9 O2         -2.5144   -0.1240    0.7158 O.2       1 <0>        -0.9617
     10 N1         -2.0098   -1.2224   -1.4396 N.pl3     1 <0>        -0.9808
     11 C7         -2.8681   -0.3221   -2.2308 C.3       1 <0>         0.1253
     12 C8         -2.5085   -0.6268   -3.7065 C.3       1 <0>        -0.1296
     13 C9         -2.2811   -2.1610   -3.6613 C.3       1 <0>        -0.1046
     14 C10        -1.6344   -2.3717   -2.2761 C.3       1 <0>         0.0818
     15 H1         -0.5500   -2.4200   -2.3746 H         1 <0>         0.0594
     16 C11        -2.1531   -3.6454   -1.6598 C.2       1 <0>         0.4940
     17 O3         -3.1745   -3.6286   -0.9941 O.co2     1 <0>        -0.6782
     18 O4         -1.5514   -4.6925   -1.8267 O.co2     1 <0>        -0.6945
     19 C12         3.6578   -0.6607   -0.0342 C.ar      1 <0>         0.4359
     20 N2          4.7503    0.0922   -0.0648 N.ar      1 <0>        -0.5229
     21 C13         4.7022    1.4161   -0.0570 C.ar      1 <0>         0.1406
     22 C14         3.5331    2.1102   -0.0171 C.ar      1 <0>        -0.1308
     23 Cl1         3.5464    3.8461   -0.0099 Cl        1 <0>        -0.0600
     24 N3          3.7528   -2.0169   -0.0432 N.2       1 <0>        -0.6357
     25 C15         3.6849   -2.6742   -1.1824 C.2       1 <0>         0.6937
     26 N4          3.6368   -1.9885   -2.3668 N.pl3     1 <0>        -0.8740
     27 N5          3.6625   -4.0434   -1.1826 N.pl3     1 <0>        -0.8247
     28 H2         -1.0291    1.8313    0.1305 H         1 <0>         0.1431
     29 H3          1.0276    3.1429    0.0665 H         1 <0>         0.1415
     30 H4          1.1736   -1.8117    0.0383 H         1 <0>         0.1505
     31 H5         -3.9198   -0.5394   -2.0440 H         1 <0>         0.0719
     32 H6         -2.6469    0.7185   -1.9936 H         1 <0>         0.0651
     33 H7         -3.3352   -0.3738   -4.3703 H         1 <0>         0.0774
     34 H8         -1.5982   -0.1055   -4.0024 H         1 <0>         0.0682
     35 H9         -3.2293   -2.6937   -3.7333 H         1 <0>         0.0759
     36 H10        -1.6007   -2.4735   -4.4535 H         1 <0>         0.0713
     37 H11         5.6304    1.9675   -0.0835 H         1 <0>         0.1584
     38 H12         3.7302   -1.0231   -2.3724 H         1 <0>         0.4124
     39 H13         3.5092   -2.4683   -3.2001 H         1 <0>         0.4039
     40 H14         3.6966   -4.5291   -0.3437 H         1 <0>         0.4269
     41 H15         3.6125   -4.5276   -2.0216 H         1 <0>         0.4140
@<TRIPOS>BOND
     1    1    6 ar
     2    1    2 ar
     3    1   28 1
     4    2    3 ar
     5    2   29 1
     6    3   22 ar
     7    3    4 ar
     8    4    5 ar
     9    4   19 ar
    10    5    6 ar
    11    5   30 1
    12    6    7 1
    13    7    8 2
    14    7    9 2
    15    7   10 1
    16   10   14 1
    17   10   11 1
    18   11   12 1
    19   11   31 1
    20   11   32 1
    21   12   13 1
    22   12   33 1
    23   12   34 1
    24   13   14 1
    25   13   35 1
    26   13   36 1
    27   14   15 1
    28   14   16 1
    29   16   17 2
    30   16   18 1
    31   19   20 ar
    32   19   24 1
    33   20   21 ar
    34   21   22 ar
    35   21   37 1
    36   22   23 1
    37   24   25 2
    38   25   26 1
    39   25   27 1
    40   26   38 1
    41   26   39 1
    42   27   40 1
    43   27   41 1
@<TRIPOS>MOLECULE
CHEMBL598169
   55    58     0     0     0
SMALL
USER_CHARGES

@<TRIPOS>ATOM
      1 C1          2.3991   -1.4180   -1.0912 C.3       1 <0>        -0.0735
      2 C2          1.3609   -0.4718   -0.5450 C.2       1 <0>         0.1271
      3 C3          0.5837    0.4307   -1.3005 C.2       1 <0>        -0.0140
      4 C4         -0.2265    1.0976   -0.4496 C.2       1 <0>         0.0676
      5 O1          0.0173    0.6464    0.7928 O.3       1 <0>        -0.0682
      6 N1          1.0208   -0.3489    0.7066 N.2       1 <0>        -0.3031
      7 C5         -1.2265    2.1600   -0.8268 C.3       1 <0>        -0.0865
      8 N2          0.6422    0.6062   -2.6960 N.am      1 <0>        -0.6227
      9 C6          0.6537   -0.4677   -3.5103 C.2       1 <0>         0.6502
     10 O2          0.7199   -1.5863   -3.0400 O.2       1 <0>        -0.5454
     11 O3          0.5917   -0.3012   -4.8452 O.3       1 <0>        -0.3493
     12 C7          0.6081   -1.4833   -5.6479 C.3       1 <0>         0.0960
     13 C8          0.5310   -1.0970   -7.1263 C.3       1 <0>         0.1316
     14 C9          1.6431   -0.1337   -7.4525 C.ar      1 <0>        -0.1346
     15 C10         1.5168    1.2037   -7.1266 C.ar      1 <0>        -0.0768
     16 C11         2.5368    2.0873   -7.4257 C.ar      1 <0>        -0.1230
     17 C12         3.6834    1.6335   -8.0504 C.ar      1 <0>        -0.1028
     18 C13         3.8101    0.2959   -8.3756 C.ar      1 <0>        -0.1166
     19 C14         2.7918   -0.5885   -8.0725 C.ar      1 <0>        -0.1054
     20 O4         -0.7291   -0.4774   -7.3917 O.3       1 <0>        -0.2900
     21 C15        -1.1769   -0.5152   -8.6730 C.ar      1 <0>         0.2195
     22 C16        -0.3986   -1.0871   -9.6505 C.ar      1 <0>        -0.2238
     23 C17        -0.8223   -1.1444  -10.9709 C.ar      1 <0>         0.0068
     24 C18        -2.0511   -0.6177  -11.3161 C.ar      1 <0>        -0.1279
     25 C19        -2.8450   -0.0406  -10.3484 C.ar      1 <0>        -0.0382
     26 C20        -2.4509    0.0326   -8.9917 C.ar      1 <0>        -0.1613
     27 C21        -3.3745    0.6464   -8.1278 C.2       1 <0>         0.0369
     28 C22        -4.5528    1.1152   -8.6161 C.2       1 <0>        -0.2909
     29 S1         -4.4434    0.7323  -10.3556 S.3       1 <0>         0.1372
     30 C23        -5.6452    1.7817   -7.8912 C.cat     1 <0>         0.6509
     31 N3         -6.7385    2.1767   -8.5477 N.pl3     1 <0>        -0.7615
     32 N4         -5.5434    1.9917   -6.5768 N.pl3     1 <0>        -0.7610
     33 H1          1.9547   -2.4033   -1.2314 H         1 <0>         0.1002
     34 H2          2.7637   -1.0443   -2.0480 H         1 <0>         0.0764
     35 H3          3.2296   -1.4906   -0.3891 H         1 <0>         0.0801
     36 H4         -2.2090    1.7055   -0.9540 H         1 <0>         0.0955
     37 H5         -1.2731    2.9114   -0.0385 H         1 <0>         0.0948
     38 H6         -0.9208    2.6317   -1.7607 H         1 <0>         0.0897
     39 H7          0.6744    1.5000   -3.0716 H         1 <0>         0.4173
     40 H8          1.5303   -2.0346   -5.4640 H         1 <0>         0.1015
     41 H9         -0.2466   -2.1090   -5.3908 H         1 <0>         0.0881
     42 H10         0.6328   -1.9912   -7.7413 H         1 <0>         0.1142
     43 H11         0.6210    1.5583   -6.6385 H         1 <0>         0.1247
     44 H12         2.4379    3.1324   -7.1717 H         1 <0>         0.1248
     45 H13         4.4801    2.3240   -8.2848 H         1 <0>         0.1267
     46 H14         4.7058   -0.0587   -8.8639 H         1 <0>         0.1288
     47 H15         2.8923   -1.6342   -8.3232 H         1 <0>         0.1256
     48 H16         0.5633   -1.5005   -9.3857 H         1 <0>         0.1478
     49 H17        -0.1946   -1.5978  -11.7238 H         1 <0>         0.1543
     50 H18        -2.3889   -0.6574  -12.3412 H         1 <0>         0.1488
     51 H19        -3.1479    0.7450   -7.0764 H         1 <0>         0.1508
     52 H20        -6.8124    2.0241   -9.5028 H         1 <0>         0.4448
     53 H21        -4.7491    1.7048   -6.0998 H         1 <0>         0.4444
     54 H22        -6.2639    2.4313   -6.0987 H         1 <0>         0.4365
     55 H23        -7.4589    2.6163   -8.0696 H         1 <0>         0.4367
@<TRIPOS>BOND
     1    1    2 1
     2    1   33 1
     3    1   34 1
     4    1   35 1
     5    2    6 2
     6    2    3 1
     7    3    4 2
     8    3    8 1
     9    4    5 1
    10    4    7 1
    11    5    6 1
    12    7   36 1
    13    7   37 1
    14    7   38 1
    15    8    9 am
    16    8   39 1
    17    9   10 2
    18    9   11 1
    19   11   12 1
    20   12   13 1
    21   12   40 1
    22   12   41 1
    23   13   14 1
    24   13   20 1
    25   13   42 1
    26   14   19 ar
    27   14   15 ar
    28   15   16 ar
    29   15   43 1
    30   16   17 ar
    31   16   44 1
    32   17   18 ar
    33   17   45 1
    34   18   19 ar
    35   18   46 1
    36   19   47 1
    37   20   21 1
    38   21   26 ar
    39   21   22 ar
    40   22   23 ar
    41   22   48 1
    42   23   24 ar
    43   23   49 1
    44   24   25 ar
    45   24   50 1
    46   25   29 1
    47   25   26 ar
    48   26   27 1
    49   27   28 2
    50   27   51 1
    51   28   29 1
    52   28   30 1
    53   30   31 2
    54   30   32 1
    55   31   52 1
    56   31   55 1
    57   32   53 1
    58   32   54 1
@<TRIPOS>MOLECULE
CHEMBL598169__1
   55    58     0     0     0
SMALL
USER_CHARGES

@<TRIPOS>ATOM
      1 C1          2.1206   -2.2757   -1.1259 C.3       1 <0>        -0.0708
      2 C2          0.9007   -1.6455   -0.5049 C.2       1 <0>         0.1258
      3 C3          0.0280   -0.7335   -1.1344 C.2       1 <0>        -0.0191
      4 C4         -0.9388   -0.4029   -0.2506 C.2       1 <0>         0.0746
      5 O1         -0.7002   -1.0695    0.8919 O.3       1 <0>        -0.0671
      6 N1          0.4648   -1.8524    0.7054 N.2       1 <0>        -0.3050
      7 C5         -2.0824    0.5460   -0.5013 C.3       1 <0>        -0.0897
      8 N2          0.1444   -0.2520   -2.4521 N.am      1 <0>        -0.6222
      9 C6          0.3923   -1.1081   -3.4630 C.2       1 <0>         0.6500
     10 O2          0.6206   -2.2781   -3.2263 O.2       1 <0>        -0.5461
     11 O3          0.3871   -0.6672   -4.7354 O.3       1 <0>        -0.3489
     12 C7          0.6579   -1.6294   -5.7566 C.3       1 <0>         0.0960
     13 C8          0.6090   -0.9478   -7.1255 C.3       1 <0>         0.1320
     14 C9         -0.7168   -0.2511   -7.2927 C.ar      1 <0>        -0.1326
     15 C10        -0.8913    1.0296   -6.8023 C.ar      1 <0>        -0.0787
     16 C11        -2.1074    1.6687   -6.9556 C.ar      1 <0>        -0.1219
     17 C12        -3.1489    1.0273   -7.5997 C.ar      1 <0>        -0.1037
     18 C13        -2.9741   -0.2530   -8.0909 C.ar      1 <0>        -0.1158
     19 C14        -1.7567   -0.8904   -7.9413 C.ar      1 <0>        -0.1066
     20 O4          1.6655    0.0099   -7.2188 O.3       1 <0>        -0.2903
     21 C15         2.0981    0.3310   -8.4651 C.ar      1 <0>         0.2184
     22 C16         1.4442   -0.1717   -9.5642 C.ar      1 <0>        -0.2227
     23 C17         1.8568    0.1340  -10.8537 C.ar      1 <0>         0.0063
     24 C18         2.9466    0.9606  -11.0429 C.ar      1 <0>        -0.1274
     25 C19         3.6141    1.4741   -9.9518 C.ar      1 <0>        -0.0386
     26 C20         3.2215    1.1901   -8.6227 C.ar      1 <0>        -0.1609
     27 C21         4.0013    1.7945   -7.6214 C.2       1 <0>         0.0364
     28 C22         5.0468    2.5921   -7.9642 C.2       1 <0>        -0.2904
     29 S1          5.0179    2.5417   -9.7478 S.3       1 <0>         0.1375
     30 C23         5.9779    3.3122   -7.0826 C.cat     1 <0>         0.6507
     31 N3          6.9546    4.0556   -7.6077 N.pl3     1 <0>        -0.7615
     32 N4          5.8465    3.2226   -5.7571 N.pl3     1 <0>        -0.7608
     33 H1          1.8668   -3.2677   -1.4995 H         1 <0>         0.0998
     34 H2          2.4698   -1.6551   -1.9512 H         1 <0>         0.0740
     35 H3          2.9075   -2.3600   -0.3764 H         1 <0>         0.0783
     36 H4         -2.9606   -0.0183   -0.8152 H         1 <0>         0.0999
     37 H5         -2.3093    1.0915    0.4146 H         1 <0>         0.0953
     38 H6         -1.8044    1.2510   -1.2848 H         1 <0>         0.0910
     39 H7          0.0462    0.6961   -2.6324 H         1 <0>         0.4170
     40 H8          1.6478   -2.0576   -5.5991 H         1 <0>         0.0881
     41 H9         -0.0907   -2.4208   -5.7178 H         1 <0>         0.1010
     42 H10         0.7272   -1.6966   -7.9087 H         1 <0>         0.1144
     43 H11        -0.0776    1.5306   -6.2991 H         1 <0>         0.1238
     44 H12        -2.2439    2.6689   -6.5719 H         1 <0>         0.1248
     45 H13        -4.0992    1.5264   -7.7189 H         1 <0>         0.1266
     46 H14        -3.7879   -0.7542   -8.5938 H         1 <0>         0.1287
     47 H15        -1.6190   -1.8893   -8.3283 H         1 <0>         0.1257
     48 H16         0.5913   -0.8187   -9.4216 H         1 <0>         0.1481
     49 H17         1.3290   -0.2725  -11.7038 H         1 <0>         0.1543
     50 H18         3.2750    1.2036  -12.0426 H         1 <0>         0.1488
     51 H19         3.7694    1.6254   -6.5802 H         1 <0>         0.1510
     52 H20         7.0501    4.1207   -8.5708 H         1 <0>         0.4448
     53 H21         5.1368    2.6825   -5.3755 H         1 <0>         0.4445
     54 H22         6.4606    3.6976   -5.1756 H         1 <0>         0.4366
     55 H23         7.5687    4.5306   -7.0262 H         1 <0>         0.4367
@<TRIPOS>BOND
     1    1    2 1
     2    1   33 1
     3    1   34 1
     4    1   35 1
     5    2    6 2
     6    2    3 1
     7    3    4 2
     8    3    8 1
     9    4    5 1
    10    4    7 1
    11    5    6 1
    12    7   36 1
    13    7   37 1
    14    7   38 1
    15    8    9 am
    16    8   39 1
    17    9   10 2
    18    9   11 1
    19   11   12 1
    20   12   13 1
    21   12   40 1
    22   12   41 1
    23   13   14 1
    24   13   20 1
    25   13   42 1
    26   14   19 ar
    27   14   15 ar
    28   15   16 ar
    29   15   43 1
    30   16   17 ar
    31   16   44 1
    32   17   18 ar
    33   17   45 1
    34   18   19 ar
    35   18   46 1
    36   19   47 1
    37   20   21 1
    38   21   26 ar
    39   21   22 ar
    40   22   23 ar
    41   22   48 1
    42   23   24 ar
    43   23   49 1
    44   24   25 ar
    45   24   50 1
    46   25   29 1
    47   25   26 ar
    48   26   27 1
    49   27   28 2
    50   27   51 1
    51   28   29 1
    52   28   30 1
    53   30   31 2
    54   30   32 1
    55   31   52 1
    56   31   55 1
    57   32   53 1
    58   32   54 1
@<TRIPOS>MOLECULE
CHEMBL326866
   88    90     0     0     0
SMALL
USER_CHARGES

@<TRIPOS>ATOM
      1 C1         -0.8778    0.5919   -1.8925 C.3       1 <0>        -0.1436
      2 C2         -0.3128   -0.7979   -2.1930 C.3       1 <0>        -0.0687
      3 C3          1.0447   -0.9562   -1.5052 C.3       1 <0>        -0.1480
      4 C4         -1.2625   -1.8484   -1.6778 C.ar      1 <0>        -0.0015
      5 C5         -1.5054   -1.9550   -0.3212 C.ar      1 <0>        -0.1396
      6 C6         -2.3766   -2.9187    0.1514 C.ar      1 <0>         0.0299
      7 C7         -3.0053   -3.7753   -0.7327 C.ar      1 <0>        -0.6878
      8 C8         -2.7632   -3.6681   -2.0895 C.ar      1 <0>         0.0362
      9 C9         -1.8953   -2.7017   -2.5624 C.ar      1 <0>        -0.1377
     10 C10        -3.4482   -4.6023   -3.0533 C.3       1 <0>        -0.0974
     11 C11        -3.7786   -3.8508   -4.3444 C.3       1 <0>        -0.1579
     12 C12        -2.5214   -5.7776   -3.3703 C.3       1 <0>        -0.1324
     13 S1         -4.1149   -5.0044   -0.1303 S.o2      1 <0>         2.6801
     14 O1         -4.1904   -6.0094   -1.1320 O.2       1 <0>        -0.9363
     15 O2         -3.7206   -5.2879    1.2052 O.2       1 <0>        -0.9424
     16 N1         -5.6153   -4.3091   -0.0433 N.pl3     1 <0>        -1.1007
     17 C13        -6.2812   -3.8486   -1.2643 C.3       1 <0>         0.1313
     18 C14        -6.5005   -2.3364   -1.1864 C.3       1 <0>        -0.1024
     19 C15        -7.3367   -2.0119    0.0246 C.ar      1 <0>        -0.0736
     20 C16        -8.7174   -2.0348   -0.0636 C.ar      1 <0>        -0.0389
     21 C17        -9.4920   -1.7381    1.0434 C.ar      1 <0>        -0.1016
     22 C18        -8.8913   -1.4167    2.2435 C.ar      1 <0>        -0.0561
     23 C19        -7.4998   -1.3919    2.3388 C.ar      1 <0>        -0.1553
     24 C20        -6.7241   -1.6981    1.2201 C.ar      1 <0>        -0.0626
     25 C21        -6.8491   -1.0476    3.6225 C.cat     1 <0>         0.6023
     26 N2         -7.4834   -0.2787    4.5052 N.pl3     1 <0>        -0.7574
     27 N3         -5.6294   -1.5068    3.8947 N.pl3     1 <0>        -0.7625
     28 C22        -7.6116   -4.5427   -1.4033 C.2       1 <0>         0.5115
     29 O3         -8.1228   -5.0724   -0.4394 O.2       1 <0>        -0.5128
     30 N4         -8.2334   -4.5748   -2.5986 N.am      1 <0>        -0.6095
     31 C23        -7.6759   -3.8532   -3.7512 C.3       1 <0>         0.0812
     32 C24        -7.4899   -4.8446   -4.9067 C.3       1 <0>         0.1084
     33 N5         -8.7372   -5.6021   -5.0809 N.am      1 <0>        -0.5966
     34 C25        -9.2946   -6.3236   -3.9283 C.3       1 <0>         0.0958
     35 C26        -9.4776   -5.3369   -2.7743 C.3       1 <0>         0.0967
     36 C27        -9.3589   -5.6341   -6.2763 C.2       1 <0>         0.6505
     37 O4         -8.8887   -5.0333   -7.2220 O.2       1 <0>        -0.5630
     38 O5        -10.5010   -6.3319   -6.4225 O.3       1 <0>        -0.3636
     39 C28       -11.1060   -6.3222   -7.7171 C.3       1 <0>         0.0525
     40 C29        -2.6405   -3.0356    1.6305 C.3       1 <0>        -0.0869
     41 C30        -1.5316   -3.8638    2.2825 C.3       1 <0>        -0.1367
     42 C31        -2.6689   -1.6393    2.2554 C.3       1 <0>        -0.1607
     43 H1         -0.1908    1.3517   -2.2651 H         1 <0>         0.0656
     44 H2         -1.8448    0.7047   -2.3825 H         1 <0>         0.0571
     45 H3         -1.0001    0.7093   -0.8158 H         1 <0>         0.0561
     46 H4         -0.1904   -0.9153   -3.2698 H         1 <0>         0.0858
     47 H5          0.9223   -0.8388   -0.4285 H         1 <0>         0.0576
     48 H6          1.4472   -1.9463   -1.7193 H         1 <0>         0.0594
     49 H7          1.7316   -0.1964   -1.8778 H         1 <0>         0.0658
     50 H8         -1.0142   -1.2857    0.3696 H         1 <0>         0.1328
     51 H9         -1.7089   -2.6154   -3.6227 H         1 <0>         0.1363
     52 H10        -4.3687   -4.9762   -2.6048 H         1 <0>         0.1041
     53 H11        -4.3697   -4.4928   -4.9975 H         1 <0>         0.0694
     54 H12        -4.3478   -2.9522   -4.1062 H         1 <0>         0.0571
     55 H13        -2.8537   -3.5719   -4.8493 H         1 <0>         0.0667
     56 H14        -2.2860   -6.3131   -2.4505 H         1 <0>         0.0644
     57 H15        -3.0169   -6.4534   -4.0674 H         1 <0>         0.0676
     58 H16        -1.6009   -5.4038   -3.8188 H         1 <0>         0.0542
     59 H17        -6.0533   -4.2067    0.8161 H         1 <0>         0.4202
     60 H18        -5.6580   -4.0814   -2.1278 H         1 <0>         0.1258
     61 H19        -5.5368   -1.8331   -1.1080 H         1 <0>         0.1062
     62 H20        -7.0155   -1.9972   -2.0851 H         1 <0>         0.1069
     63 H21        -9.1923   -2.2850   -1.0007 H         1 <0>         0.1400
     64 H22       -10.5692   -1.7577    0.9683 H         1 <0>         0.1493
     65 H23        -9.4971   -1.1846    3.1069 H         1 <0>         0.1414
     66 H24        -5.6463   -1.6852    1.2889 H         1 <0>         0.1364
     67 H25        -7.0901   -0.1148    5.3766 H         1 <0>         0.4339
     68 H26        -5.1387   -2.0072    3.2242 H         1 <0>         0.4422
     69 H27        -5.2314   -1.3408    4.7636 H         1 <0>         0.4345
     70 H28        -8.3621   -3.0625   -4.0546 H         1 <0>         0.0896
     71 H29        -6.7124   -3.4212   -3.4812 H         1 <0>         0.0977
     72 H30        -7.2617   -4.2999   -5.8228 H         1 <0>         0.1158
     73 H31        -6.6752   -5.5300   -4.6730 H         1 <0>         0.0842
     74 H32       -10.2582   -6.7557   -4.1983 H         1 <0>         0.1109
     75 H33        -8.6084   -7.1143   -3.6250 H         1 <0>         0.0810
     76 H34        -9.7036   -5.8843   -1.8592 H         1 <0>         0.1111
     77 H35       -10.2950   -4.6542   -3.0064 H         1 <0>         0.0799
     78 H36       -11.3512   -5.2973   -7.9958 H         1 <0>         0.0627
     79 H37       -10.4118   -6.7407   -8.4457 H         1 <0>         0.0636
     80 H38       -12.0165   -6.9210   -7.6971 H         1 <0>         0.1071
     81 H39        -3.6013   -3.5248    1.7905 H         1 <0>         0.0936
     82 H40        -0.5708   -3.3745    2.1225 H         1 <0>         0.0558
     83 H41        -1.7225   -3.9483    3.3524 H         1 <0>         0.0641
     84 H42        -1.5114   -4.8585    1.8373 H         1 <0>         0.0706
     85 H43        -3.4232   -1.0324    1.7547 H         1 <0>         0.0543
     86 H44        -2.9121   -1.7203    3.3148 H         1 <0>         0.0581
     87 H45        -1.6914   -1.1705    2.1419 H         1 <0>         0.0739
     88 H46        -8.3388    0.1177    4.2768 H         1 <0>         0.4468
@<TRIPOS>BOND
     1    1    2 1
     2    1   43 1
     3    1   44 1
     4    1   45 1
     5    2    3 1
     6    2    4 1
     7    2   46 1
     8    3   47 1
     9    3   48 1
    10    3   49 1
    11    4    9 ar
    12    4    5 ar
    13    5    6 ar
    14    5   50 1
    15    6    7 ar
    16    6   40 1
    17    7    8 ar
    18    7   13 1
    19    8    9 ar
    20    8   10 1
    21    9   51 1
    22   10   11 1
    23   10   12 1
    24   10   52 1
    25   11   53 1
    26   11   54 1
    27   11   55 1
    28   12   56 1
    29   12   57 1
    30   12   58 1
    31   13   14 2
    32   13   15 2
    33   13   16 1
    34   16   17 1
    35   16   59 1
    36   17   18 1
    37   17   28 1
    38   17   60 1
    39   18   19 1
    40   18   61 1
    41   18   62 1
    42   19   24 ar
    43   19   20 ar
    44   20   21 ar
    45   20   63 1
    46   21   22 ar
    47   21   64 1
    48   22   23 ar
    49   22   65 1
    50   23   24 ar
    51   23   25 1
    52   24   66 1
    53   25   26 2
    54   25   27 1
    55   26   67 1
    56   26   88 1
    57   27   68 1
    58   27   69 1
    59   28   29 2
    60   28   30 am
    61   30   35 1
    62   30   31 1
    63   31   32 1
    64   31   70 1
    65   31   71 1
    66   32   33 1
    67   32   72 1
    68   32   73 1
    69   33   34 1
    70   33   36 am
    71   34   35 1
    72   34   74 1
    73   34   75 1
    74   35   76 1
    75   35   77 1
    76   36   37 2
    77   36   38 1
    78   38   39 1
    79   39   78 1
    80   39   79 1
    81   39   80 1
    82   40   41 1
    83   40   42 1
    84   40   81 1
    85   41   82 1
    86   41   83 1
    87   41   84 1
    88   42   85 1
    89   42   86 1
    90   42   87 1
@<TRIPOS>MOLECULE
CHEMBL326866__1
   88    90     0     0     0
SMALL
USER_CHARGES

@<TRIPOS>ATOM
      1 C1         -2.2873    3.5556   -2.1414 C.3       1 <0>        -0.1451
      2 C2         -1.4277    2.3361   -1.8024 C.3       1 <0>        -0.0674
      3 C3         -0.3191    2.7476   -0.8316 C.3       1 <0>        -0.1471
      4 C4         -2.2882    1.2772   -1.1625 C.ar      1 <0>         0.0001
      5 C5         -2.9640    1.5522    0.0116 C.ar      1 <0>        -0.1379
      6 C6         -3.7533    0.5810    0.5986 C.ar      1 <0>         0.0474
      7 C7         -3.8672   -0.6652    0.0111 C.ar      1 <0>        -0.6911
      8 C8         -3.1922   -0.9398   -1.1635 C.ar      1 <0>         0.0285
      9 C9         -2.4063    0.0328   -1.7527 C.ar      1 <0>        -0.1454
     10 C10        -3.3160   -2.2985   -1.8037 C.3       1 <0>        -0.0926
     11 C11        -3.2884   -2.1493   -3.3262 C.3       1 <0>        -0.1607
     12 C12        -2.1491   -3.1812   -1.3566 C.3       1 <0>        -0.1277
     13 S1         -4.8724   -1.9036    0.7598 S.o2      1 <0>         2.6800
     14 O1         -4.4434   -3.1502    0.2296 O.2       1 <0>        -0.9423
     15 O2         -4.8809   -1.6313    2.1545 O.2       1 <0>        -0.9459
     16 N1         -6.4209   -1.6683    0.2222 N.pl3     1 <0>        -1.1006
     17 C13        -6.7129   -1.7128   -1.2127 C.3       1 <0>         0.1367
     18 C14        -7.7821   -2.7734   -1.4830 C.3       1 <0>        -0.0938
     19 C15        -7.2307   -4.1372   -1.1561 C.ar      1 <0>        -0.0727
     20 C16        -6.5786   -4.8703   -2.1318 C.ar      1 <0>        -0.0478
     21 C17        -6.0697   -6.1230   -1.8397 C.ar      1 <0>        -0.1000
     22 C18        -6.2101   -6.6495   -0.5719 C.ar      1 <0>        -0.0540
     23 C19        -6.8665   -5.9155    0.4162 C.ar      1 <0>        -0.1508
     24 C20        -7.3723   -4.6499    0.1168 C.ar      1 <0>        -0.0561
     25 C21        -7.0211   -6.4744    1.7775 C.cat     1 <0>         0.6016
     26 N2         -7.1089   -7.7916    1.9504 N.pl3     1 <0>        -0.7581
     27 N3         -7.0723   -5.6600    2.8296 N.pl3     1 <0>        -0.7598
     28 C22        -7.2155   -0.3661   -1.6651 C.2       1 <0>         0.5075
     29 O3         -7.7382    0.3848   -0.8690 O.2       1 <0>        -0.5093
     30 N4         -7.0841    0.0039   -2.9544 N.am      1 <0>        -0.6072
     31 C23        -6.5592   -0.9379   -3.9531 C.3       1 <0>         0.0802
     32 C24        -7.5745   -1.0560   -5.0965 C.3       1 <0>         0.1128
     33 N5         -7.9541    0.2963   -5.5290 N.am      1 <0>        -0.5972
     34 C25        -8.4790    1.2381   -4.5304 C.3       1 <0>         0.0985
     35 C26        -7.4690    1.3544   -3.3879 C.3       1 <0>         0.0961
     36 C27        -7.8227    0.6663   -6.8183 C.2       1 <0>         0.6508
     37 O4         -7.3871   -0.1210   -7.6350 O.2       1 <0>        -0.5636
     38 O5         -8.1742    1.9082   -7.2015 O.3       1 <0>        -0.3630
     39 C28        -8.0084    2.2322   -8.5833 C.3       1 <0>         0.0524
     40 C29        -4.4892    0.8804    1.8791 C.3       1 <0>        -0.1090
     41 C30        -3.4810    1.0725    3.0138 C.3       1 <0>        -0.1347
     42 C31        -5.3130    2.1582    1.7071 C.3       1 <0>        -0.1472
     43 H1         -1.6649    4.3215   -2.6042 H         1 <0>         0.0655
     44 H2         -3.0771    3.2624   -2.8330 H         1 <0>         0.0559
     45 H3         -2.7322    3.9516   -1.2286 H         1 <0>         0.0589
     46 H4         -0.9828    1.9400   -2.7152 H         1 <0>         0.0836
     47 H5         -0.7640    3.1437    0.0813 H         1 <0>         0.0591
     48 H6          0.2933    1.8788   -0.5900 H         1 <0>         0.0580
     49 H7          0.3033    3.5135   -1.2944 H         1 <0>         0.0658
     50 H8         -2.8750    2.5258    0.4706 H         1 <0>         0.1321
     51 H9         -1.8818   -0.1806   -2.6724 H         1 <0>         0.1337
     52 H10        -4.2565   -2.7586   -1.5007 H         1 <0>         0.1082
     53 H11        -3.3276   -3.1355   -3.7887 H         1 <0>         0.0685
     54 H12        -4.1480   -1.5621   -3.6493 H         1 <0>         0.0550
     55 H13        -2.3701   -1.6440   -3.6252 H         1 <0>         0.0650
     56 H14        -2.1687   -3.2875   -0.2719 H         1 <0>         0.0613
     57 H15        -2.2386   -4.1639   -1.8196 H         1 <0>         0.0634
     58 H16        -1.2085   -2.7212   -1.6596 H         1 <0>         0.0521
     59 H17        -7.1347   -1.5011    0.8574 H         1 <0>         0.4258
     60 H18        -5.8048   -1.9645   -1.7606 H         1 <0>         0.1158
     61 H19        -8.6551   -2.5758   -0.8611 H         1 <0>         0.1035
     62 H20        -8.0695   -2.7399   -2.5339 H         1 <0>         0.1044
     63 H21        -6.4667   -4.4629   -3.1257 H         1 <0>         0.1438
     64 H22        -5.5617   -6.6902   -2.6056 H         1 <0>         0.1494
     65 H23        -5.8130   -7.6279   -0.3453 H         1 <0>         0.1394
     66 H24        -7.8773   -4.0748    0.8787 H         1 <0>         0.1352
     67 H25        -7.2102   -8.1580    2.8429 H         1 <0>         0.4333
     68 H26        -7.0084   -4.7003    2.7037 H         1 <0>         0.4443
     69 H27        -7.1736   -6.0263    3.7221 H         1 <0>         0.4343
     70 H28        -5.6110   -0.5672   -4.3426 H         1 <0>         0.0886
     71 H29        -6.4116   -1.9147   -3.4926 H         1 <0>         0.0953
     72 H30        -7.1247   -1.5942   -5.9309 H         1 <0>         0.1153
     73 H31        -8.4582   -1.5900   -4.7474 H         1 <0>         0.0809
     74 H32        -8.6266    2.2150   -4.9908 H         1 <0>         0.1103
     75 H33        -9.4272    0.8675   -4.1409 H         1 <0>         0.0801
     76 H34        -7.9220    1.8910   -2.5543 H         1 <0>         0.1120
     77 H35        -6.5871    1.8920   -3.7363 H         1 <0>         0.0789
     78 H36        -6.9587    2.1271   -8.8578 H         1 <0>         0.0630
     79 H37        -8.6119    1.5568   -9.1898 H         1 <0>         0.0635
     80 H38        -8.3281    3.2598   -8.7565 H         1 <0>         0.1075
     81 H39        -5.1529    0.0499    2.1195 H         1 <0>         0.1179
     82 H40        -2.8173    1.9030    2.7734 H         1 <0>         0.0545
     83 H41        -4.0132    1.2891    3.9400 H         1 <0>         0.0655
     84 H42        -2.8941    0.1622    3.1363 H         1 <0>         0.0575
     85 H43        -6.0312    2.0214    0.8987 H         1 <0>         0.0612
     86 H44        -5.8452    2.3748    2.6333 H         1 <0>         0.0651
     87 H45        -4.6493    2.9887    1.4667 H         1 <0>         0.0565
     88 H46        -7.0715   -8.3849    1.1840 H         1 <0>         0.4465
@<TRIPOS>BOND
     1    1    2 1
     2    1   43 1
     3    1   44 1
     4    1   45 1
     5    2    3 1
     6    2    4 1
     7    2   46 1
     8    3   47 1
     9    3   48 1
    10    3   49 1
    11    4    9 ar
    12    4    5 ar
    13    5    6 ar
    14    5   50 1
    15    6    7 ar
    16    6   40 1
    17    7    8 ar
    18    7   13 1
    19    8    9 ar
    20    8   10 1
    21    9   51 1
    22   10   11 1
    23   10   12 1
    24   10   52 1
    25   11   53 1
    26   11   54 1
    27   11   55 1
    28   12   56 1
    29   12   57 1
    30   12   58 1
    31   13   14 2
    32   13   15 2
    33   13   16 1
    34   16   17 1
    35   16   59 1
    36   17   18 1
    37   17   28 1
    38   17   60 1
    39   18   19 1
    40   18   61 1
    41   18   62 1
    42   19   24 ar
    43   19   20 ar
    44   20   21 ar
    45   20   63 1
    46   21   22 ar
    47   21   64 1
    48   22   23 ar
    49   22   65 1
    50   23   24 ar
    51   23   25 1
    52   24   66 1
    53   25   26 2
    54   25   27 1
    55   26   67 1
    56   26   88 1
    57   27   68 1
    58   27   69 1
    59   28   29 2
    60   28   30 am
    61   30   35 1
    62   30   31 1
    63   31   32 1
    64   31   70 1
    65   31   71 1
    66   32   33 1
    67   32   72 1
    68   32   73 1
    69   33   34 1
    70   33   36 am
    71   34   35 1
    72   34   74 1
    73   34   75 1
    74   35   76 1
    75   35   77 1
    76   36   37 2
    77   36   38 1
    78   38   39 1
    79   39   78 1
    80   39   79 1
    81   39   80 1
    82   40   41 1
    83   40   42 1
    84   40   81 1
    85   41   82 1
    86   41   83 1
    87   41   84 1
    88   42   85 1
    89   42   86 1
    90   42   87 1
@<TRIPOS>MOLECULE
CHEMBL228170
   41    43     0     0     0
SMALL
USER_CHARGES

@<TRIPOS>ATOM
      1 C1          0.8986   -0.0770    0.8279 C.ar      1 <0>         0.0183
      2 C2          2.1702    0.4040    0.9348 C.ar      1 <0>        -0.1371
      3 C3          3.2434   -0.3835    0.4982 C.ar      1 <0>         0.0422
      4 C4          2.9901   -1.6668   -0.0474 C.ar      1 <0>        -0.1303
      5 C5          1.6751   -2.1292   -0.1426 C.ar      1 <0>         0.0700
      6 C6          0.6518   -1.3375    0.2917 C.ar      1 <0>        -0.6361
      7 S1         -1.0068   -1.9201    0.1726 S.o2      1 <0>         2.7021
      8 O1         -0.9377   -3.3392    0.1440 O.2       1 <0>        -0.9688
      9 O2         -1.7568   -1.2135    1.1510 O.2       1 <0>        -0.9798
     10 N1         -1.5879   -1.4448   -1.3035 N.pl3     1 <0>        -1.0711
     11 C7         -0.9413   -1.9148   -2.5312 C.3       1 <0>         0.0715
     12 C8         -1.8840   -1.9602   -3.7453 C.3       1 <0>        -0.1133
     13 C9         -2.2368   -3.3949   -3.3186 C.3       1 <0>        -0.1369
     14 C10        -0.8594   -3.4468   -2.6366 C.3       1 <0>        -0.1580
     15 C11         0.3673   -1.2199   -2.8063 C.2       1 <0>         0.4918
     16 O3          0.7128   -0.2756   -2.1168 O.co2     1 <0>        -0.6722
     17 O4          1.0805   -1.6020   -3.7183 O.co2     1 <0>        -0.6808
     18 C12         4.1320   -2.4640   -0.4935 C.ar      1 <0>         0.4299
     19 N2          5.3535   -1.9597   -0.3716 N.ar      1 <0>        -0.5287
     20 C13         5.5793   -0.7587    0.1399 C.ar      1 <0>         0.1300
     21 C14         4.5812    0.0535    0.5807 C.ar      1 <0>        -0.1236
     22 Cl1         4.9519    1.6163    1.2394 Cl        1 <0>        -0.0687
     23 N3          3.9454   -3.7018   -1.0240 N.2       1 <0>        -0.6124
     24 C15         4.0472   -4.7686   -0.2584 C.2       1 <0>         0.6805
     25 N4          4.2334   -4.6278    1.0909 N.pl3     1 <0>        -0.8771
     26 N5          3.9668   -6.0186   -0.8117 N.pl3     1 <0>        -0.8334
     27 H1          0.0710    0.5275    1.1684 H         1 <0>         0.1325
     28 H2          2.3484    1.3840    1.3523 H         1 <0>         0.1332
     29 H3          1.4700   -3.1052   -0.5569 H         1 <0>         0.1376
     30 H4         -2.3564   -0.8551   -1.3552 H         1 <0>         0.4100
     31 H5         -2.7208   -1.2654   -3.6746 H         1 <0>         0.0597
     32 H6         -1.3659   -1.9044   -4.7027 H         1 <0>         0.0936
     33 H7         -3.0720   -3.4499   -2.6204 H         1 <0>         0.0720
     34 H8         -2.3364   -4.0871   -4.1546 H         1 <0>         0.0607
     35 H9         -0.0612   -3.7974   -3.2909 H         1 <0>         0.0963
     36 H10        -0.8691   -3.9521   -1.6709 H         1 <0>         0.0989
     37 H11         6.5990   -0.4097    0.2099 H         1 <0>         0.1532
     38 H12         4.2144   -3.7455    1.4936 H         1 <0>         0.4128
     39 H13         4.3843   -5.4103    1.6439 H         1 <0>         0.3980
     40 H14         3.8349   -6.1184   -1.7675 H         1 <0>         0.4251
     41 H15         4.0418   -6.8043   -0.2479 H         1 <0>         0.4079
@<TRIPOS>BOND
     1    1    6 ar
     2    1    2 ar
     3    1   27 1
     4    2    3 ar
     5    2   28 1
     6    3   21 ar
     7    3    4 ar
     8    4    5 ar
     9    4   18 ar
    10    5    6 ar
    11    5   29 1
    12    6    7 1
    13    7    8 2
    14    7    9 2
    15    7   10 1
    16   10   11 1
    17   10   30 1
    18   11   14 1
    19   11   12 1
    20   11   15 1
    21   12   13 1
    22   12   31 1
    23   12   32 1
    24   13   14 1
    25   13   33 1
    26   13   34 1
    27   14   35 1
    28   14   36 1
    29   15   16 2
    30   15   17 1
    31   18   19 ar
    32   18   23 1
    33   19   20 ar
    34   20   21 ar
    35   20   37 1
    36   21   22 1
    37   23   24 2
    38   24   25 1
    39   24   26 1
    40   25   38 1
    41   25   39 1
    42   26   40 1
    43   26   41 1
@<TRIPOS>MOLECULE
CHEMBL183613
   48    52     0     0     0
SMALL
USER_CHARGES

@<TRIPOS>ATOM
      1 C1          0.6253    2.1994    0.8414 C.ar      1 <0>        -0.1213
      2 C2          1.9251    2.6465    0.9879 C.ar      1 <0>        -0.1153
      3 C3          2.9817    1.7801    0.7789 C.ar      1 <0>        -0.1087
      4 C4          2.7386    0.4665    0.4237 C.ar      1 <0>        -0.0555
      5 C5          1.4388    0.0191    0.2781 C.ar      1 <0>        -0.1167
      6 C6          0.3821    0.8859    0.4858 C.ar      1 <0>        -0.1182
      7 C7          3.8906   -0.4778    0.1949 C.3       1 <0>        -0.0959
      8 C8          3.5559   -1.9193   -0.1936 C.3       1 <0>        -0.1653
      9 C9          4.0890   -1.6084    1.2064 C.3       1 <0>        -0.1233
     10 C10         3.1175   -1.6925    2.3554 C.ar      1 <0>         0.0041
     11 C11         1.9015   -2.2772    2.1624 C.ar      1 <0>        -0.1160
     12 C12         0.9847   -2.3642    3.2227 C.ar      1 <0>        -0.0016
     13 C13        -0.2754   -2.9649    3.0426 C.ar      1 <0>        -0.0800
     14 C14        -1.1470   -3.0387    4.0806 C.ar      1 <0>        -0.0945
     15 C15        -0.8090   -2.5207    5.3431 C.ar      1 <0>        -0.1626
     16 C16         0.4241   -1.9236    5.5506 C.ar      1 <0>        -0.0173
     17 C17         1.3354   -1.8393    4.4918 C.ar      1 <0>        -0.0591
     18 C18         2.6053   -1.2367    4.6658 C.ar      1 <0>         0.0168
     19 C19         3.4795   -1.1776    3.5943 C.ar      1 <0>        -0.0800
     20 C20         2.9958   -0.6808    5.9818 C.2       1 <0>        -0.1576
     21 C21         4.2424   -0.9320    6.7153 C.2       1 <0>        -0.2002
     22 C22         4.1544   -0.2197    7.8507 C.2       1 <0>        -0.0184
     23 O1          2.9814    0.4314    7.8692 O.3       1 <0>        -0.1744
     24 C23         2.2765    0.1730    6.7587 C.2       1 <0>        -0.0243
     25 C24        -1.7765   -2.6131    6.4573 C.cat     1 <0>         0.6021
     26 N1         -3.0846   -2.6037    6.2060 N.pl3     1 <0>        -0.7590
     27 N2         -1.3400   -2.7058    7.7124 N.pl3     1 <0>        -0.7624
     28 H1         -0.2004    2.8751    1.0091 H         1 <0>         0.1210
     29 H2          2.1151    3.6729    1.2654 H         1 <0>         0.1235
     30 H3          3.9973    2.1297    0.8926 H         1 <0>         0.1228
     31 H4          1.2488   -1.0071    0.0003 H         1 <0>         0.1198
     32 H5         -0.6334    0.5365    0.3716 H         1 <0>         0.1198
     33 H6          4.7835   -0.0324   -0.2437 H         1 <0>         0.1239
     34 H7          2.5026   -2.1847   -0.2836 H         1 <0>         0.1034
     35 H8          4.2287   -2.4225   -0.8880 H         1 <0>         0.1110
     36 H9          5.1124   -1.9070    1.4331 H         1 <0>         0.1287
     37 H10         1.6424   -2.6742    1.1920 H         1 <0>         0.1403
     38 H11        -0.5490   -3.3669    2.0783 H         1 <0>         0.1478
     39 H12        -2.1121   -3.5008    3.9347 H         1 <0>         0.1367
     40 H13         0.6798   -1.5262    6.5217 H         1 <0>         0.1407
     41 H14         4.4510   -0.7233    3.7214 H         1 <0>         0.1373
     42 H15         5.0632   -1.5616    6.4052 H         1 <0>         0.1579
     43 H16         4.9067   -0.1780    8.6245 H         1 <0>         0.2108
     44 H17         1.3017    0.5731    6.5219 H         1 <0>         0.2024
     45 H18        -3.4025   -2.5363    5.2920 H         1 <0>         0.4465
     46 H19        -0.3874   -2.7126    7.8954 H         1 <0>         0.4451
     47 H20        -1.9747   -2.7665    8.4434 H         1 <0>         0.4327
     48 H21        -3.7194   -2.6644    6.9369 H         1 <0>         0.4323
@<TRIPOS>BOND
     1    1    6 ar
     2    1    2 ar
     3    1   28 1
     4    2    3 ar
     5    2   29 1
     6    3    4 ar
     7    3   30 1
     8    4    5 ar
     9    4    7 1
    10    5    6 ar
    11    5   31 1
    12    6   32 1
    13    7    9 1
    14    7    8 1
    15    7   33 1
    16    8    9 1
    17    8   34 1
    18    8   35 1
    19    9   10 1
    20    9   36 1
    21   10   19 ar
    22   10   11 ar
    23   11   12 ar
    24   11   37 1
    25   12   17 ar
    26   12   13 ar
    27   13   14 ar
    28   13   38 1
    29   14   15 ar
    30   14   39 1
    31   15   16 ar
    32   15   25 1
    33   16   17 ar
    34   16   40 1
    35   17   18 ar
    36   18   19 ar
    37   18   20 1
    38   19   41 1
    39   20   24 2
    40   20   21 1
    41   21   22 2
    42   21   42 1
    43   22   23 1
    44   22   43 1
    45   23   24 1
    46   24   44 1
    47   25   26 2
    48   25   27 1
    49   26   45 1
    50   26   48 1
    51   27   46 1
    52   27   47 1
@<TRIPOS>MOLECULE
CHEMBL183613__1
   48    52     0     0     0
SMALL
USER_CHARGES

@<TRIPOS>ATOM
      1 C1         -0.0167    1.3781    0.0096 C.ar      1 <0>        -0.1181
      2 C2          1.1709    2.0855    0.0021 C.ar      1 <0>        -0.1160
      3 C3          2.3773    1.4107   -0.0130 C.ar      1 <0>        -0.1111
      4 C4          2.3960    0.0285   -0.0201 C.ar      1 <0>        -0.0627
      5 C5          1.2084   -0.6789   -0.0117 C.ar      1 <0>        -0.1193
      6 C6          0.0021   -0.0041    0.0020 C.ar      1 <0>        -0.1150
      7 C7          3.7112   -0.7071   -0.0376 C.3       1 <0>        -0.0887
      8 C8          3.6705   -2.2220   -0.2482 C.3       1 <0>        -0.1630
      9 C9          4.0087   -1.6501    1.1300 C.3       1 <0>        -0.1232
     10 C10         5.4387   -1.7530    1.5943 C.ar      1 <0>         0.0017
     11 C11         6.3976   -2.1720    0.7208 C.ar      1 <0>        -0.1241
     12 C12         7.7349   -2.2730    1.1372 C.ar      1 <0>        -0.0026
     13 C13         8.7389   -2.7032    0.2494 C.ar      1 <0>        -0.0803
     14 C14        10.0256   -2.7939    0.6720 C.ar      1 <0>        -0.0937
     15 C15        10.3751   -2.4626    1.9929 C.ar      1 <0>        -0.1622
     16 C16         9.4085   -2.0360    2.8895 C.ar      1 <0>        -0.0170
     17 C17         8.0768   -1.9360    2.4708 C.ar      1 <0>        -0.0612
     18 C18         7.0615   -1.5033    3.3584 C.ar      1 <0>         0.0184
     19 C19         5.7573   -1.4136    2.9036 C.ar      1 <0>        -0.0834
     20 C20         7.3926   -1.1453    4.7569 C.2       1 <0>        -0.1598
     21 C21         7.0046    0.0749    5.4749 C.2       1 <0>        -0.1998
     22 C22         7.5264   -0.0385    6.7075 C.2       1 <0>        -0.0180
     23 O1          8.1867   -1.2030    6.7978 O.3       1 <0>        -0.1741
     24 C23         8.1142   -1.8815    5.6440 C.2       1 <0>        -0.0235
     25 C24        11.7837   -2.5705    2.4285 C.cat     1 <0>         0.6020
     26 N1         12.5850   -3.4783    1.8730 N.pl3     1 <0>        -0.7587
     27 N2         12.2518   -1.7600    3.3764 N.pl3     1 <0>        -0.7621
     28 H1         -0.9591    1.9053    0.0259 H         1 <0>         0.1246
     29 H2          1.1563    3.1654    0.0076 H         1 <0>         0.1248
     30 H3          3.3051    1.9634   -0.0196 H         1 <0>         0.1211
     31 H4          1.2231   -1.7588   -0.0176 H         1 <0>         0.1233
     32 H5         -0.9258   -0.5567    0.0082 H         1 <0>         0.1249
     33 H6          4.5497   -0.1609   -0.4697 H         1 <0>         0.1169
     34 H7          2.6925   -2.6866   -0.3741 H         1 <0>         0.1104
     35 H8          4.4823   -2.6727   -0.8191 H         1 <0>         0.1055
     36 H9          3.2533   -1.7383    1.9108 H         1 <0>         0.1238
     37 H10         6.1282   -2.4271   -0.2934 H         1 <0>         0.1433
     38 H11         8.4854   -2.9615   -0.7682 H         1 <0>         0.1491
     39 H12        10.7904   -3.1252   -0.0148 H         1 <0>         0.1374
     40 H13         9.6807   -1.7830    3.9036 H         1 <0>         0.1414
     41 H14         4.9790   -1.0802    3.5740 H         1 <0>         0.1390
     42 H15         6.4187    0.8966    5.0904 H         1 <0>         0.1582
     43 H16         7.4303    0.6906    7.4984 H         1 <0>         0.2111
     44 H17         8.5559   -2.8480    5.4510 H         1 <0>         0.2033
     45 H18        12.2442   -4.0685    1.1828 H         1 <0>         0.4467
     46 H19        11.6683   -1.0990    3.7808 H         1 <0>         0.4451
     47 H20        13.1760   -1.8308    3.6622 H         1 <0>         0.4329
     48 H21        13.5092   -3.5491    2.1588 H         1 <0>         0.4325
@<TRIPOS>BOND
     1    1    6 ar
     2    1    2 ar
     3    1   28 1
     4    2    3 ar
     5    2   29 1
     6    3    4 ar
     7    3   30 1
     8    4    5 ar
     9    4    7 1
    10    5    6 ar
    11    5   31 1
    12    6   32 1
    13    7    9 1
    14    7    8 1
    15    7   33 1
    16    8    9 1
    17    8   34 1
    18    8   35 1
    19    9   10 1
    20    9   36 1
    21   10   19 ar
    22   10   11 ar
    23   11   12 ar
    24   11   37 1
    25   12   17 ar
    26   12   13 ar
    27   13   14 ar
    28   13   38 1
    29   14   15 ar
    30   14   39 1
    31   15   16 ar
    32   15   25 1
    33   16   17 ar
    34   16   40 1
    35   17   18 ar
    36   18   19 ar
    37   18   20 1
    38   19   41 1
    39   20   24 2
    40   20   21 1
    41   21   22 2
    42   21   42 1
    43   22   23 1
    44   22   43 1
    45   23   24 1
    46   24   44 1
    47   25   26 2
    48   25   27 1
    49   26   45 1
    50   26   48 1
    51   27   46 1
    52   27   47 1
@<TRIPOS>MOLECULE
CHEMBL183613__2
   48    52     0     0     0
SMALL
USER_CHARGES

@<TRIPOS>ATOM
      1 C1         -0.0167    1.3781    0.0096 C.ar      1 <0>        -0.1180
      2 C2          1.1709    2.0855    0.0021 C.ar      1 <0>        -0.1160
      3 C3          2.3773    1.4107   -0.0130 C.ar      1 <0>        -0.1110
      4 C4          2.3960    0.0285   -0.0201 C.ar      1 <0>        -0.0628
      5 C5          1.2084   -0.6789   -0.0117 C.ar      1 <0>        -0.1193
      6 C6          0.0021   -0.0041    0.0020 C.ar      1 <0>        -0.1151
      7 C7          3.7112   -0.7071   -0.0376 C.3       1 <0>        -0.0887
      8 C8          3.6748   -2.2240    0.1587 C.3       1 <0>        -0.1630
      9 C9          3.9841   -1.6383   -1.2205 C.3       1 <0>        -0.1232
     10 C10         5.4040   -1.7365   -1.7156 C.ar      1 <0>         0.0017
     11 C11         6.3790   -2.1747   -0.8700 C.ar      1 <0>        -0.1241
     12 C12         7.7072   -2.2725   -1.3156 C.ar      1 <0>        -0.0026
     13 C13         8.7274   -2.7234   -0.4570 C.ar      1 <0>        -0.0803
     14 C14        10.0048   -2.8105   -0.9077 C.ar      1 <0>        -0.0938
     15 C15        10.3285   -2.4548   -2.2288 C.ar      1 <0>        -0.1622
     16 C16         9.3455   -2.0076   -3.0970 C.ar      1 <0>        -0.0171
     17 C17         8.0229   -1.9120   -2.6495 C.ar      1 <0>        -0.0612
     18 C18         6.9911   -1.4596   -3.5079 C.ar      1 <0>         0.0184
     19 C19         5.6951   -1.3840   -3.0279 C.ar      1 <0>        -0.0833
     20 C20         7.2948   -1.0769   -4.9061 C.2       1 <0>        -0.1597
     21 C21         6.5969   -1.5223   -6.1183 C.2       1 <0>        -0.1999
     22 C22         7.2170   -0.9191   -7.1459 C.2       1 <0>        -0.0179
     23 O1          8.2145   -0.1586   -6.6696 O.3       1 <0>        -0.1741
     24 C23         8.2744   -0.2354   -5.3327 C.2       1 <0>        -0.0235
     25 C24        11.7277   -2.5583   -2.6948 C.cat     1 <0>         0.6020
     26 N1         12.7306   -2.3933   -1.8337 N.pl3     1 <0>        -0.7587
     27 N2         11.9857   -2.8164   -3.9760 N.pl3     1 <0>        -0.7621
     28 H1         -0.9591    1.9053    0.0259 H         1 <0>         0.1246
     29 H2          1.1563    3.1654    0.0076 H         1 <0>         0.1248
     30 H3          3.3051    1.9634   -0.0196 H         1 <0>         0.1211
     31 H4          1.2231   -1.7588   -0.0176 H         1 <0>         0.1233
     32 H5         -0.9258   -0.5567    0.0082 H         1 <0>         0.1249
     33 H6          4.5586   -0.1652    0.3823 H         1 <0>         0.1168
     34 H7          4.4983   -2.6804    0.7079 H         1 <0>         0.1055
     35 H8          2.6996   -2.6899    0.3005 H         1 <0>         0.1104
     36 H9          3.2124   -1.7189   -1.9861 H         1 <0>         0.1238
     37 H10         6.1297   -2.4470    0.1450 H         1 <0>         0.1433
     38 H11         8.4938   -2.9998    0.5605 H         1 <0>         0.1491
     39 H12        10.7823   -3.1570   -0.2430 H         1 <0>         0.1374
     40 H13         9.5981   -1.7346   -4.1109 H         1 <0>         0.1414
     41 H14         4.9029   -1.0441   -3.6785 H         1 <0>         0.1390
     42 H15         5.7559   -2.1976   -6.1729 H         1 <0>         0.1583
     43 H16         6.9550   -1.0288   -8.1879 H         1 <0>         0.2111
     44 H17         8.9819    0.2817   -4.7015 H         1 <0>         0.2032
     45 H18        12.5427   -2.2053   -0.9008 H         1 <0>         0.4467
     46 H19        11.2554   -2.9365   -4.6031 H         1 <0>         0.4451
     47 H20        12.9037   -2.8843   -4.2818 H         1 <0>         0.4329
     48 H21        13.6486   -2.4611   -2.1395 H         1 <0>         0.4325
@<TRIPOS>BOND
     1    1    6 ar
     2    1    2 ar
     3    1   28 1
     4    2    3 ar
     5    2   29 1
     6    3    4 ar
     7    3   30 1
     8    4    5 ar
     9    4    7 1
    10    5    6 ar
    11    5   31 1
    12    6   32 1
    13    7    9 1
    14    7    8 1
    15    7   33 1
    16    8    9 1
    17    8   34 1
    18    8   35 1
    19    9   10 1
    20    9   36 1
    21   10   19 ar
    22   10   11 ar
    23   11   12 ar
    24   11   37 1
    25   12   17 ar
    26   12   13 ar
    27   13   14 ar
    28   13   38 1
    29   14   15 ar
    30   14   39 1
    31   15   16 ar
    32   15   25 1
    33   16   17 ar
    34   16   40 1
    35   17   18 ar
    36   18   19 ar
    37   18   20 1
    38   19   41 1
    39   20   24 2
    40   20   21 1
    41   21   22 2
    42   21   42 1
    43   22   23 1
    44   22   43 1
    45   23   24 1
    46   24   44 1
    47   25   26 2
    48   25   27 1
    49   26   45 1
    50   26   48 1
    51   27   46 1
    52   27   47 1
@<TRIPOS>MOLECULE
CHEMBL183613__3
   48    52     0     0     0
SMALL
USER_CHARGES

@<TRIPOS>ATOM
      1 C1          5.0905   -5.7150   -4.2414 C.ar      1 <0>        -0.1207
      2 C2          5.7197   -4.5081   -4.4832 C.ar      1 <0>        -0.1150
      3 C3          5.7349   -3.5288   -3.5076 C.ar      1 <0>        -0.1144
      4 C4          5.1205   -3.7563   -2.2904 C.ar      1 <0>        -0.0564
      5 C5          4.4906   -4.9629   -2.0488 C.ar      1 <0>        -0.1088
      6 C6          4.4766   -5.9426   -3.0239 C.ar      1 <0>        -0.1167
      7 C7          5.1379   -2.6892   -1.2264 C.3       1 <0>        -0.0958
      8 C8          5.5149   -1.2698   -1.6556 C.3       1 <0>        -0.1659
      9 C9          4.0644   -1.6014   -1.2993 C.3       1 <0>        -0.1229
     10 C10         3.0705   -1.6792   -2.4294 C.ar      1 <0>         0.0034
     11 C11         1.7639   -1.9522   -2.1541 C.ar      1 <0>        -0.1135
     12 C12         0.8248   -2.0278   -3.1956 C.ar      1 <0>        -0.0039
     13 C13        -0.5289   -2.3081   -2.9307 C.ar      1 <0>        -0.0793
     14 C14        -1.4205   -2.3767   -3.9519 C.ar      1 <0>        -0.0955
     15 C15        -1.0108   -2.1708   -5.2809 C.ar      1 <0>        -0.1628
     16 C16         0.3151   -1.8931   -5.5725 C.ar      1 <0>        -0.0176
     17 C17         1.2480   -1.8180   -4.5320 C.ar      1 <0>        -0.0599
     18 C18         2.6116   -1.5359   -4.7909 C.ar      1 <0>         0.0173
     19 C19         3.5015   -1.4657   -3.7332 C.ar      1 <0>        -0.0835
     20 C20         3.0792   -1.3127   -6.1784 C.2       1 <0>        -0.1557
     21 C21         3.8989   -0.1980   -6.6688 C.2       1 <0>        -0.2010
     22 C22         4.0721   -0.4153   -7.9830 C.2       1 <0>        -0.0183
     23 O1          3.4386   -1.5470   -8.3267 O.3       1 <0>        -0.1742
     24 C23         2.8433   -2.1012   -7.2612 C.2       1 <0>        -0.0240
     25 C24        -2.0015   -2.2516   -6.3753 C.cat     1 <0>         0.6021
     26 N1         -3.0598   -3.0521   -6.2579 N.pl3     1 <0>        -0.7590
     27 N2         -1.8360   -1.5239   -7.4787 N.pl3     1 <0>        -0.7625
     28 H1          5.0748   -6.4783   -5.0052 H         1 <0>         0.1210
     29 H2          6.1996   -4.3303   -5.4342 H         1 <0>         0.1207
     30 H3          6.2270   -2.5862   -3.6963 H         1 <0>         0.1200
     31 H4          4.0109   -5.1407   -1.0977 H         1 <0>         0.1217
     32 H5          3.9848   -6.8854   -2.8351 H         1 <0>         0.1224
     33 H6          5.4557   -3.0172   -0.2367 H         1 <0>         0.1255
     34 H7          6.0810   -0.6637   -0.9483 H         1 <0>         0.1112
     35 H8          5.7503   -1.1079   -2.7075 H         1 <0>         0.1031
     36 H9          3.6762   -1.2135   -0.3575 H         1 <0>         0.1277
     37 H10         1.4501   -2.1111   -1.1330 H         1 <0>         0.1411
     38 H11        -0.8582   -2.4689   -1.9148 H         1 <0>         0.1487
     39 H12        -2.4574   -2.5926   -3.7409 H         1 <0>         0.1367
     40 H13         0.6262   -1.7362   -6.5948 H         1 <0>         0.1406
     41 H14         4.5419   -1.2466   -3.9233 H         1 <0>         0.1378
     42 H15         4.2844    0.6287   -6.0906 H         1 <0>         0.1572
     43 H16         4.6309    0.2191   -8.6550 H         1 <0>         0.2104
     44 H17         2.2714   -3.0173   -7.2627 H         1 <0>         0.2018
     45 H18        -3.1804   -3.5820   -5.4544 H         1 <0>         0.4466
     46 H19        -1.0654   -0.9410   -7.5642 H         1 <0>         0.4450
     47 H20        -2.4860   -1.5769   -8.1967 H         1 <0>         0.4327
     48 H21        -3.7099   -3.1051   -6.9759 H         1 <0>         0.4323
@<TRIPOS>BOND
     1    1    6 ar
     2    1    2 ar
     3    1   28 1
     4    2    3 ar
     5    2   29 1
     6    3    4 ar
     7    3   30 1
     8    4    5 ar
     9    4    7 1
    10    5    6 ar
    11    5   31 1
    12    6   32 1
    13    7    9 1
    14    7    8 1
    15    7   33 1
    16    8    9 1
    17    8   34 1
    18    8   35 1
    19    9   10 1
    20    9   36 1
    21   10   19 ar
    22   10   11 ar
    23   11   12 ar
    24   11   37 1
    25   12   17 ar
    26   12   13 ar
    27   13   14 ar
    28   13   38 1
    29   14   15 ar
    30   14   39 1
    31   15   16 ar
    32   15   25 1
    33   16   17 ar
    34   16   40 1
    35   17   18 ar
    36   18   19 ar
    37   18   20 1
    38   19   41 1
    39   20   24 2
    40   20   21 1
    41   21   22 2
    42   21   42 1
    43   22   23 1
    44   22   43 1
    45   23   24 1
    46   24   44 1
    47   25   26 2
    48   25   27 1
    49   26   45 1
    50   26   48 1
    51   27   46 1
    52   27   47 1
@<TRIPOS>MOLECULE
CHEMBL111543
   58    60     0     0     0
SMALL
USER_CHARGES

@<TRIPOS>ATOM
      1 C1         -0.9493    1.4645   -0.1144 C.3       1 <0>        -0.1502
      2 C2         -0.7623   -0.0458   -0.2727 C.3       1 <0>         0.0750
      3 C3         -0.2707   -0.6401    1.0486 C.3       1 <0>        -0.1823
      4 O1         -2.0094   -0.6452   -0.6299 O.3       1 <0>        -0.3019
      5 C4         -1.9567   -1.8277   -1.2974 C.ar      1 <0>         0.1945
      6 C5         -3.1222   -2.4050   -1.7776 C.ar      1 <0>        -0.1920
      7 C6         -3.0681   -3.6129   -2.4600 C.ar      1 <0>         0.2162
      8 C7         -1.8468   -4.2418   -2.6609 C.ar      1 <0>        -0.2734
      9 C8         -0.6822   -3.6633   -2.1801 C.ar      1 <0>         0.1950
     10 C9         -0.7365   -2.4540   -1.5032 C.ar      1 <0>        -0.2562
     11 O2          0.5133   -4.2787   -2.3767 O.3       1 <0>        -0.3039
     12 C10         0.4849   -5.5737   -2.9802 C.3       1 <0>         0.0776
     13 C11         0.4389   -5.4261   -4.5024 C.3       1 <0>        -0.1827
     14 C12         1.7413   -6.3501   -2.5809 C.3       1 <0>        -0.1515
     15 N1         -4.2432   -4.1959   -2.9442 N.am      1 <0>        -0.6623
     16 C13        -5.2570   -3.4161   -3.3691 C.2       1 <0>         0.5519
     17 O3         -5.1179   -2.2093   -3.4140 O.2       1 <0>        -0.4932
     18 C14        -6.5381   -4.0282   -3.7805 C.ar      1 <0>        -0.0961
     19 C15        -6.6949   -5.4243   -3.7209 C.ar      1 <0>        -0.0823
     20 C16        -7.8618   -6.0096   -4.0932 C.ar      1 <0>        -0.0930
     21 C17        -8.9342   -5.2178   -4.5456 C.ar      1 <0>        -0.0492
     22 C18       -10.1486   -5.8038   -4.9345 C.ar      1 <0>        -0.0180
     23 C19       -11.1844   -4.9981   -5.3745 C.ar      1 <0>        -0.1422
     24 C20       -11.0282   -3.6026   -5.4340 C.ar      1 <0>        -0.0973
     25 C21        -9.8610   -3.0168   -5.0626 C.ar      1 <0>        -0.0665
     26 C22        -8.7885   -3.8083   -4.6100 C.ar      1 <0>        -0.0222
     27 C23        -7.5761   -3.2217   -4.2162 C.ar      1 <0>        -0.0404
     28 C24       -12.4669   -5.6111   -5.7861 C.cat     1 <0>         0.5994
     29 N2        -13.4670   -4.8412   -6.2103 N.pl3     1 <0>        -0.7587
     30 N3        -12.6207   -6.9325   -5.7324 N.pl3     1 <0>        -0.7630
     31 H1          0.0019    1.9217    0.1581 H         1 <0>         0.0802
     32 H2         -1.2995    1.8879   -1.0557 H         1 <0>         0.0661
     33 H3         -1.6834    1.6597    0.6674 H         1 <0>         0.0683
     34 H4         -0.0282   -0.2410   -1.0544 H         1 <0>         0.0774
     35 H5          0.6806   -0.1829    1.3210 H         1 <0>         0.0754
     36 H6         -1.0047   -0.4449    1.8303 H         1 <0>         0.0687
     37 H7         -0.1375   -1.7161    0.9358 H         1 <0>         0.0642
     38 H8         -4.0719   -1.9153   -1.6206 H         1 <0>         0.1434
     39 H9         -1.8040   -5.1816   -3.1913 H         1 <0>         0.1352
     40 H10         0.1715   -2.0018   -1.1324 H         1 <0>         0.1419
     41 H11        -0.3990   -6.1135   -2.6406 H         1 <0>         0.0740
     42 H12         0.4172   -6.4139   -4.9627 H         1 <0>         0.0736
     43 H13        -0.4562   -4.8729   -4.7869 H         1 <0>         0.0624
     44 H14         1.3228   -4.8863   -4.8420 H         1 <0>         0.0703
     45 H15         1.7742   -6.4553   -1.4965 H         1 <0>         0.0667
     46 H16         1.7197   -7.3379   -3.0412 H         1 <0>         0.0792
     47 H17         2.6253   -5.8103   -2.9205 H         1 <0>         0.0695
     48 H18        -4.3287   -5.1617   -2.9744 H         1 <0>         0.4121
     49 H19        -5.8768   -6.0386   -3.3748 H         1 <0>         0.1397
     50 H20        -7.9673   -7.0832   -4.0426 H         1 <0>         0.1471
     51 H21       -10.2739   -6.8756   -4.8911 H         1 <0>         0.1448
     52 H22       -11.8466   -2.9886   -5.7798 H         1 <0>         0.1385
     53 H23        -9.7555   -1.9432   -5.1140 H         1 <0>         0.1545
     54 H24        -7.4523   -2.1496   -4.2560 H         1 <0>         0.1584
     55 H25       -13.3549   -3.8785   -6.2495 H         1 <0>         0.4454
     56 H26       -11.8922   -7.4934   -5.4233 H         1 <0>         0.4434
     57 H27       -13.4613   -7.3343   -6.0022 H         1 <0>         0.4345
     58 H28       -14.3076   -5.2430   -6.4801 H         1 <0>         0.4340
@<TRIPOS>BOND
     1    1    2 1
     2    1   31 1
     3    1   32 1
     4    1   33 1
     5    2    3 1
     6    2    4 1
     7    2   34 1
     8    3   35 1
     9    3   36 1
    10    3   37 1
    11    4    5 1
    12    5   10 ar
    13    5    6 ar
    14    6    7 ar
    15    6   38 1
    16    7    8 ar
    17    7   15 1
    18    8    9 ar
    19    8   39 1
    20    9   10 ar
    21    9   11 1
    22   10   40 1
    23   11   12 1
    24   12   13 1
    25   12   14 1
    26   12   41 1
    27   13   42 1
    28   13   43 1
    29   13   44 1
    30   14   45 1
    31   14   46 1
    32   14   47 1
    33   15   16 am
    34   15   48 1
    35   16   17 2
    36   16   18 1
    37   18   27 ar
    38   18   19 ar
    39   19   20 ar
    40   19   49 1
    41   20   21 ar
    42   20   50 1
    43   21   26 ar
    44   21   22 ar
    45   22   23 ar
    46   22   51 1
    47   23   24 ar
    48   23   28 1
    49   24   25 ar
    50   24   52 1
    51   25   26 ar
    52   25   53 1
    53   26   27 ar
    54   27   54 1
    55   28   29 2
    56   28   30 1
    57   29   55 1
    58   29   58 1
    59   30   56 1
    60   30   57 1
@<TRIPOS>MOLECULE
CHEMBL172934
   50    53     0     0     0
SMALL
USER_CHARGES

@<TRIPOS>ATOM
      1 C1         -0.0262    1.7143   -1.0527 C.3       1 <0>        -0.2209
      2 S1         -0.0004   -0.0711   -0.7332 S.3       1 <0>         0.1732
      3 C2         -1.7038   -0.5120   -0.6398 C.2       1 <0>        -0.0858
      4 C3         -2.2724   -1.7628   -0.4052 C.2       1 <0>        -0.0802
      5 C4         -3.6460   -1.8610   -0.3773 C.2       1 <0>         0.0212
      6 C5         -4.3976   -0.7171   -0.5827 C.2       1 <0>        -0.3235
      7 S2         -3.1423    0.5302   -0.8135 S.3       1 <0>         0.1785
      8 C6         -5.8524   -0.5675   -0.6006 C.cat     1 <0>         0.6518
      9 N1         -6.3990    0.6352   -0.8182 N.pl3     1 <0>        -0.7728
     10 N2         -6.6375   -1.6332   -0.3994 N.pl3     1 <0>        -0.7665
     11 C7         -1.4195   -2.9584   -0.1914 C.2       1 <0>         0.1527
     12 C8         -1.9583   -4.1932    0.0347 C.2       1 <0>        -0.2768
     13 S3         -0.4786   -5.1768    0.2077 S.3       1 <0>         0.1575
     14 C9          0.6497   -3.9495   -0.0192 C.2       1 <0>         0.3179
     15 N3         -0.0941   -2.8831   -0.2157 N.2       1 <0>        -0.5772
     16 N4          2.0330   -4.0415   -0.0073 N.pl3     1 <0>        -0.6120
     17 C10         2.6493   -5.2919    0.0914 C.ar      1 <0>         0.1455
     18 C11         2.0683   -6.4035   -0.5059 C.ar      1 <0>        -0.1538
     19 C12         2.6799   -7.6376   -0.4064 C.ar      1 <0>        -0.0764
     20 C13         3.8695   -7.7677    0.2868 C.ar      1 <0>        -0.0828
     21 C14         4.4504   -6.6633    0.8829 C.ar      1 <0>        -0.0797
     22 C15         3.8473   -5.4250    0.7821 C.ar      1 <0>        -0.1336
     23 C16         4.5341   -9.1161    0.3932 C.3       1 <0>        -0.0435
     24 C17         5.4799   -9.3028   -0.7651 C.ar      1 <0>        -0.0808
     25 C18         5.0280   -9.8699   -1.9419 C.ar      1 <0>        -0.1150
     26 C19         5.8956  -10.0411   -3.0044 C.ar      1 <0>        -0.1175
     27 C20         7.2150   -9.6449   -2.8901 C.ar      1 <0>        -0.1214
     28 C21         7.6667   -9.0769   -1.7136 C.ar      1 <0>        -0.1171
     29 C22         6.7980   -8.9017   -0.6526 C.ar      1 <0>        -0.1146
     30 H1          0.9962    2.0848   -1.1278 H         1 <0>         0.1307
     31 H2         -0.5525    1.9087   -1.9872 H         1 <0>         0.0954
     32 H3         -0.5376    2.2224   -0.2352 H         1 <0>         0.0954
     33 H4         -4.1269   -2.8115   -0.1990 H         1 <0>         0.1553
     34 H5         -7.3638    0.7344   -0.8301 H         1 <0>         0.4347
     35 H6         -6.2415   -2.5045   -0.2417 H         1 <0>         0.4432
     36 H7         -7.6023   -1.5339   -0.4112 H         1 <0>         0.4344
     37 H8         -2.9945   -4.4920    0.0931 H         1 <0>         0.1933
     38 H9          2.5731   -3.2380   -0.0674 H         1 <0>         0.4254
     39 H10         1.1391   -6.3027   -1.0470 H         1 <0>         0.1289
     40 H11         2.2286   -8.5023   -0.8701 H         1 <0>         0.1316
     41 H12         5.3793   -6.7684    1.4238 H         1 <0>         0.1327
     42 H13         4.3041   -4.5620    1.2435 H         1 <0>         0.1315
     43 H14         5.0897   -9.1744    1.3291 H         1 <0>         0.0860
     44 H15         3.7749   -9.8979    0.3721 H         1 <0>         0.0857
     45 H16         3.9972  -10.1794   -2.0312 H         1 <0>         0.1204
     46 H17         5.5427  -10.4848   -3.9236 H         1 <0>         0.1223
     47 H18         7.8930   -9.7793   -3.7200 H         1 <0>         0.1221
     48 H19         8.6976   -8.7676   -1.6242 H         1 <0>         0.1228
     49 H20         7.1500   -8.4546    0.2653 H         1 <0>         0.1209
     50 H21        -5.8302    1.4073   -0.9640 H         1 <0>         0.4408
@<TRIPOS>BOND
     1    1    2 1
     2    1   30 1
     3    1   31 1
     4    1   32 1
     5    2    3 1
     6    3    7 1
     7    3    4 2
     8    4    5 1
     9    4   11 1
    10    5    6 2
    11    5   33 1
    12    6    7 1
    13    6    8 1
    14    8    9 2
    15    8   10 1
    16    9   34 1
    17    9   50 1
    18   10   35 1
    19   10   36 1
    20   11   15 1
    21   11   12 2
    22   12   13 1
    23   12   37 1
    24   13   14 1
    25   14   15 2
    26   14   16 1
    27   16   17 1
    28   16   38 1
    29   17   22 ar
    30   17   18 ar
    31   18   19 ar
    32   18   39 1
    33   19   20 ar
    34   19   40 1
    35   20   21 ar
    36   20   23 1
    37   21   22 ar
    38   21   41 1
    39   22   42 1
    40   23   24 1
    41   23   43 1
    42   23   44 1
    43   24   29 ar
    44   24   25 ar
    45   25   26 ar
    46   25   45 1
    47   26   27 ar
    48   26   46 1
    49   27   28 ar
    50   27   47 1
    51   28   29 ar
    52   28   48 1
    53   29   49 1
@<TRIPOS>MOLECULE
CHEMBL551628
   45    47     0     0     0
SMALL
USER_CHARGES

@<TRIPOS>ATOM
      1 C1         -0.0166    1.3747    0.0096 C.ar      1 <0>        -0.1159
      2 C2          1.1704    2.0864    0.0021 C.ar      1 <0>        -0.1008
      3 C3          2.3837    1.4214   -0.0135 C.ar      1 <0>        -0.0817
      4 C4          2.4182    0.0425   -0.0216 C.ar      1 <0>        -0.0933
      5 C5          1.2238   -0.6828   -0.0137 C.ar      1 <0>        -0.0746
      6 C6          0.0021   -0.0041    0.0020 C.ar      1 <0>        -0.1056
      7 C7          1.2522   -2.1561   -0.0228 C.2       1 <0>        -0.0614
      8 C8          0.1021   -2.8502   -0.0151 C.2       1 <0>        -0.1450
      9 C9          0.1305   -4.3226   -0.0242 C.ar      1 <0>         0.0034
     10 C10         1.3661   -4.9977   -0.0351 C.ar      1 <0>        -0.1052
     11 C11         1.4168   -6.3532   -0.0436 C.ar      1 <0>        -0.0864
     12 C12         0.2249   -7.1038   -0.0419 C.ar      1 <0>        -0.0747
     13 C13         0.2575   -8.5054   -0.0505 C.ar      1 <0>        -0.0073
     14 C14        -0.9315   -9.2159   -0.0482 C.ar      1 <0>        -0.1618
     15 C15        -2.1661   -8.5428   -0.0374 C.ar      1 <0>        -0.0927
     16 C16        -2.2184   -7.1867   -0.0290 C.ar      1 <0>        -0.0821
     17 C17        -1.0270   -6.4356   -0.0310 C.ar      1 <0>        -0.0035
     18 C18        -1.0603   -5.0343   -0.0161 C.ar      1 <0>        -0.1165
     19 C19        -0.9024  -10.6941   -0.0577 C.cat     1 <0>         0.6001
     20 N1         -2.0426  -11.3828   -0.0555 N.pl3     1 <0>        -0.7625
     21 N2          0.2641  -11.3372   -0.0684 N.pl3     1 <0>        -0.7664
     22 C20         3.6706    2.2055   -0.0221 C.3       1 <0>        -0.0840
     23 C21         4.1204    2.4632    1.4175 C.3       1 <0>         0.0811
     24 O1          5.3407    3.2067    1.4093 O.3       1 <0>        -0.5747
     25 H1         -0.9598    1.9005    0.0259 H         1 <0>         0.1288
     26 H2          1.1496    3.1662    0.0080 H         1 <0>         0.1275
     27 H3          3.3659   -0.4753   -0.0345 H         1 <0>         0.1269
     28 H4         -0.9250   -0.5581    0.0079 H         1 <0>         0.1261
     29 H5          2.1977   -2.6779   -0.0356 H         1 <0>         0.1263
     30 H6         -0.8434   -2.3284   -0.0022 H         1 <0>         0.1324
     31 H7          2.2845   -4.4294   -0.0372 H         1 <0>         0.1392
     32 H8          2.3718   -6.8574   -0.0520 H         1 <0>         0.1403
     33 H9          1.2029   -9.0274   -0.0591 H         1 <0>         0.1406
     34 H10        -3.0839   -9.1120   -0.0362 H         1 <0>         0.1343
     35 H11        -3.1739   -6.6834   -0.0211 H         1 <0>         0.1488
     36 H12        -2.0059   -4.5126   -0.0030 H         1 <0>         0.1435
     37 H13        -2.8920  -10.9145   -0.0478 H         1 <0>         0.4444
     38 H14         1.0944  -10.8357   -0.0699 H         1 <0>         0.4427
     39 H15         0.2832  -12.3070   -0.0746 H         1 <0>         0.4331
     40 H16         4.4388    1.6373   -0.5466 H         1 <0>         0.0817
     41 H17         3.5127    3.1573   -0.5293 H         1 <0>         0.0835
     42 H18         3.3522    3.0314    1.9420 H         1 <0>         0.0479
     43 H19         4.2782    1.5114    1.9247 H         1 <0>         0.0462
     44 H20         5.6853    3.4067    2.2904 H         1 <0>         0.3845
     45 H21        -2.0235  -12.3526   -0.0618 H         1 <0>         0.4325
@<TRIPOS>BOND
     1    1    6 ar
     2    1    2 ar
     3    1   25 1
     4    2    3 ar
     5    2   26 1
     6    3    4 ar
     7    3   22 1
     8    4    5 ar
     9    4   27 1
    10    5    6 ar
    11    5    7 1
    12    6   28 1
    13    7    8 2
    14    7   29 1
    15    8    9 1
    16    8   30 1
    17    9   18 ar
    18    9   10 ar
    19   10   11 ar
    20   10   31 1
    21   11   12 ar
    22   11   32 1
    23   12   17 ar
    24   12   13 ar
    25   13   14 ar
    26   13   33 1
    27   14   15 ar
    28   14   19 1
    29   15   16 ar
    30   15   34 1
    31   16   17 ar
    32   16   35 1
    33   17   18 ar
    34   18   36 1
    35   19   20 2
    36   19   21 1
    37   20   37 1
    38   20   45 1
    39   21   38 1
    40   21   39 1
    41   22   23 1
    42   22   40 1
    43   22   41 1
    44   23   24 1
    45   23   42 1
    46   23   43 1
    47   24   44 1
@<TRIPOS>MOLECULE
CHEMBL570081
   41    44     0     0     0
SMALL
USER_CHARGES

@<TRIPOS>ATOM
      1 C1         -0.0164    1.4029   -0.0001 C.ar      1 <0>        -0.0672
      2 C2          1.1501    2.0981   -0.0152 C.ar      1 <0>        -0.0982
      3 C3          2.3860    1.4302   -0.0409 C.ar      1 <0>        -0.1447
      4 C4          2.4381    0.0468   -0.0514 C.ar      1 <0>        -0.0229
      5 C5          1.2443   -0.6899   -0.0357 C.ar      1 <0>        -0.0480
      6 C6          0.0025   -0.0043   -0.0098 C.ar      1 <0>        -0.0248
      7 C7         -1.1918   -0.7411    0.0049 C.ar      1 <0>        -0.0398
      8 C8         -1.1396   -2.1248   -0.0056 C.ar      1 <0>        -0.0980
      9 C9          0.0976   -2.7929   -0.0304 C.ar      1 <0>        -0.0821
     10 C10         1.2633   -2.0976   -0.0453 C.ar      1 <0>        -0.0937
     11 C11        -2.3944   -2.9060    0.0098 C.2       1 <0>         0.5524
     12 O1         -3.4666   -2.3334    0.0317 O.2       1 <0>        -0.5006
     13 N1         -2.3499   -4.2530   -0.0003 N.am      1 <0>        -0.6591
     14 C12        -3.5328   -4.9934    0.1122 C.ar      1 <0>         0.1446
     15 C13        -3.5361   -6.1958    0.8069 C.ar      1 <0>        -0.1280
     16 C14        -4.7027   -6.9275    0.9187 C.ar      1 <0>        -0.0805
     17 C15        -5.8725   -6.4641    0.3383 C.ar      1 <0>         0.0259
     18 C16        -5.8725   -5.2583   -0.3588 C.ar      1 <0>         0.0536
     19 C17        -4.7040   -4.5229   -0.4659 C.ar      1 <0>        -0.1026
     20 O2         -7.1327   -5.0267   -0.8299 O.3       1 <0>        -0.3048
     21 C18        -7.8071   -6.2971   -0.7651 C.3       1 <0>         0.2125
     22 O3         -7.1336   -6.9878    0.3036 O.3       1 <0>        -0.3053
     23 C19         3.6424    2.2120   -0.0574 C.cat     1 <0>         0.6010
     24 N2          3.6703    3.4153   -0.6266 N.pl3     1 <0>        -0.7560
     25 N3          4.7449    1.7120    0.4969 N.pl3     1 <0>        -0.7595
     26 H1         -0.9587    1.9300    0.0238 H         1 <0>         0.1536
     27 H2          1.1275    3.1778   -0.0077 H         1 <0>         0.1407
     28 H3          3.3908   -0.4615   -0.0719 H         1 <0>         0.1473
     29 H4         -2.1444   -0.2327    0.0247 H         1 <0>         0.1576
     30 H5          0.1206   -3.8726   -0.0376 H         1 <0>         0.1402
     31 H6          2.2058   -2.6245   -0.0654 H         1 <0>         0.1469
     32 H7         -1.4982   -4.7094   -0.0855 H         1 <0>         0.4143
     33 H8         -2.6256   -6.5595    1.2599 H         1 <0>         0.1434
     34 H9         -4.7028   -7.8626    1.4592 H         1 <0>         0.1446
     35 H10        -4.7028   -3.5856   -1.0025 H         1 <0>         0.1516
     36 H11        -8.8619   -6.1591   -0.5272 H         1 <0>         0.1362
     37 H12        -7.6930   -6.8396   -1.7036 H         1 <0>         0.0886
     38 H13         2.8671    3.7795   -1.0304 H         1 <0>         0.4474
     39 H14         4.7246    0.8354    0.9115 H         1 <0>         0.4458
     40 H15         5.5685    2.2245    0.4860 H         1 <0>         0.4340
     41 H16         4.4938    3.9277   -0.6374 H         1 <0>         0.4338
@<TRIPOS>BOND
     1    1    6 ar
     2    1    2 ar
     3    1   26 1
     4    2    3 ar
     5    2   27 1
     6    3    4 ar
     7    3   23 1
     8    4    5 ar
     9    4   28 1
    10    5   10 ar
    11    5    6 ar
    12    6    7 ar
    13    7    8 ar
    14    7   29 1
    15    8    9 ar
    16    8   11 1
    17    9   10 ar
    18    9   30 1
    19   10   31 1
    20   11   12 2
    21   11   13 am
    22   13   14 1
    23   13   32 1
    24   14   19 ar
    25   14   15 ar
    26   15   16 ar
    27   15   33 1
    28   16   17 ar
    29   16   34 1
    30   17   22 1
    31   17   18 ar
    32   18   19 ar
    33   18   20 1
    34   19   35 1
    35   20   21 1
    36   21   22 1
    37   21   36 1
    38   21   37 1
    39   23   24 2
    40   23   25 1
    41   24   38 1
    42   24   41 1
    43   25   39 1
    44   25   40 1
@<TRIPOS>MOLECULE
CHEMBL182309
   51    54     0     0     0
SMALL
USER_CHARGES

@<TRIPOS>ATOM
      1 C1          0.5427    1.6525    0.7222 C.3       1 <0>        -0.1794
      2 C2          0.2473    0.2490    0.1893 C.3       1 <0>         0.0773
      3 C3         -1.2605    0.0876   -0.0142 C.3       1 <0>        -0.1514
      4 O1          0.9190    0.0619   -1.0580 O.3       1 <0>        -0.3099
      5 C4          2.2174   -0.3360   -1.0060 C.ar      1 <0>         0.1386
      6 C5          2.8642   -0.4388    0.2172 C.ar      1 <0>        -0.2129
      7 C6          4.1837   -0.8440    0.2675 C.ar      1 <0>        -0.0761
      8 C7          4.8601   -1.1470   -0.8999 C.ar      1 <0>        -0.1558
      9 C8          4.2181   -1.0450   -2.1200 C.ar      1 <0>        -0.0153
     10 C9          2.8965   -0.6457   -2.1752 C.ar      1 <0>        -0.1451
     11 C10         4.9584   -1.3755   -3.3903 C.3       1 <0>        -0.0970
     12 C11         6.4424   -1.7281   -3.2718 C.3       1 <0>        -0.1639
     13 C12         6.0208   -0.3833   -3.8674 C.3       1 <0>        -0.1227
     14 C13         6.2470    0.8497   -3.0310 C.ar      1 <0>         0.0016
     15 C14         7.0676    0.7754   -1.9070 C.ar      1 <0>        -0.0944
     16 C15         7.2923    1.8703   -1.1307 C.ar      1 <0>        -0.0916
     17 C16         6.6894    3.0963   -1.4652 C.ar      1 <0>        -0.0696
     18 C17         6.9004    4.2445   -0.6869 C.ar      1 <0>        -0.0097
     19 C18         6.2901    5.4332   -1.0481 C.ar      1 <0>        -0.1594
     20 C19         5.4645    5.4954   -2.1845 C.ar      1 <0>        -0.0960
     21 C20         5.2490    4.3949   -2.9494 C.ar      1 <0>        -0.0790
     22 C21         5.8549    3.1716   -2.6090 C.ar      1 <0>        -0.0045
     23 C22         5.6510    2.0204   -3.3881 C.ar      1 <0>        -0.1098
     24 C23         6.5077    6.6473   -0.2319 C.cat     1 <0>         0.6002
     25 N1          5.9230    7.7938   -0.5748 N.pl3     1 <0>        -0.7623
     26 N2          7.2883    6.5942    0.8458 N.pl3     1 <0>        -0.7663
     27 H1          1.6169    1.7674    0.8671 H         1 <0>         0.0591
     28 H2          0.1913    2.3946    0.0054 H         1 <0>         0.0671
     29 H3          0.0303    1.7952    1.6736 H         1 <0>         0.0739
     30 H4          0.5987   -0.4932    0.9061 H         1 <0>         0.0743
     31 H5         -1.6119    0.8298   -0.7309 H         1 <0>         0.0680
     32 H6         -1.4710   -0.9122   -0.3938 H         1 <0>         0.0675
     33 H7         -1.7729    0.2303    0.9373 H         1 <0>         0.0794
     34 H8          2.3365   -0.2019    1.1293 H         1 <0>         0.1285
     35 H9          4.6877   -0.9238    1.2194 H         1 <0>         0.1238
     36 H10         5.8919   -1.4636   -0.8585 H         1 <0>         0.1224
     37 H11         2.3940   -0.5704   -3.1282 H         1 <0>         0.1301
     38 H12         4.3766   -1.8948   -4.1519 H         1 <0>         0.1258
     39 H13         6.8834   -1.7210   -2.2750 H         1 <0>         0.1050
     40 H14         6.8373   -2.4797   -3.9553 H         1 <0>         0.1112
     41 H15         6.1384   -0.2502   -4.9428 H         1 <0>         0.1292
     42 H16         7.5317   -0.1648   -1.6481 H         1 <0>         0.1368
     43 H17         7.9300    1.7982   -0.2621 H         1 <0>         0.1386
     44 H18         7.5334    4.2011    0.1871 H         1 <0>         0.1398
     45 H19         4.9956    6.4307   -2.4522 H         1 <0>         0.1334
     46 H20         4.6120    4.4583   -3.8193 H         1 <0>         0.1478
     47 H21         5.0213    2.0631   -4.2644 H         1 <0>         0.1402
     48 H22         5.3545    7.8325   -1.3597 H         1 <0>         0.4445
     49 H23         7.7141    5.7592    1.0955 H         1 <0>         0.4427
     50 H24         7.4310    7.3904    1.3810 H         1 <0>         0.4330
     51 H25         6.0657    8.5900   -0.0395 H         1 <0>         0.4324
@<TRIPOS>BOND
     1    1    2 1
     2    1   27 1
     3    1   28 1
     4    1   29 1
     5    2    3 1
     6    2    4 1
     7    2   30 1
     8    3   31 1
     9    3   32 1
    10    3   33 1
    11    4    5 1
    12    5   10 ar
    13    5    6 ar
    14    6    7 ar
    15    6   34 1
    16    7    8 ar
    17    7   35 1
    18    8    9 ar
    19    8   36 1
    20    9   10 ar
    21    9   11 1
    22   10   37 1
    23   11   13 1
    24   11   12 1
    25   11   38 1
    26   12   13 1
    27   12   39 1
    28   12   40 1
    29   13   14 1
    30   13   41 1
    31   14   23 ar
    32   14   15 ar
    33   15   16 ar
    34   15   42 1
    35   16   17 ar
    36   16   43 1
    37   17   22 ar
    38   17   18 ar
    39   18   19 ar
    40   18   44 1
    41   19   20 ar
    42   19   24 1
    43   20   21 ar
    44   20   45 1
    45   21   22 ar
    46   21   46 1
    47   22   23 ar
    48   23   47 1
    49   24   25 2
    50   24   26 1
    51   25   48 1
    52   25   51 1
    53   26   49 1
    54   26   50 1
@<TRIPOS>MOLECULE
CHEMBL182309__1
   51    54     0     0     0
SMALL
USER_CHARGES

@<TRIPOS>ATOM
      1 C1         -0.0444    1.2733    0.3453 C.3       1 <0>        -0.1817
      2 C2         -0.0148   -0.2291    0.0576 C.3       1 <0>         0.0767
      3 C3         -1.4472   -0.7566   -0.0472 C.3       1 <0>        -0.1506
      4 O1          0.6709   -0.4649   -1.1737 O.3       1 <0>        -0.3107
      5 C4          2.0259   -0.5530   -1.1182 C.ar      1 <0>         0.1386
      6 C5          2.6899   -0.3088    0.0754 C.ar      1 <0>        -0.2102
      7 C6          4.0671   -0.3994    0.1294 C.ar      1 <0>        -0.0734
      8 C7          4.7842   -0.7333   -1.0050 C.ar      1 <0>        -0.1587
      9 C8          4.1250   -0.9767   -2.1955 C.ar      1 <0>        -0.0213
     10 C9          2.7471   -0.8929   -2.2533 C.ar      1 <0>        -0.1465
     11 C10         4.9096   -1.3397   -3.4299 C.3       1 <0>        -0.0905
     12 C11         6.4040   -1.6207   -3.2599 C.3       1 <0>        -0.1612
     13 C12         5.9406   -0.3282   -3.9346 C.3       1 <0>        -0.1224
     14 C13         6.1316   -0.2142   -5.4251 C.ar      1 <0>        -0.0025
     15 C14         6.5372   -1.3317   -6.1524 C.ar      1 <0>        -0.1042
     16 C15         6.7187   -1.2622   -7.4993 C.ar      1 <0>        -0.0886
     17 C16         6.4941   -0.0466   -8.1702 C.ar      1 <0>        -0.0724
     18 C17         6.6713    0.0595   -9.5580 C.ar      1 <0>        -0.0088
     19 C18         6.4401    1.2728  -10.1829 C.ar      1 <0>        -0.1589
     20 C19         6.0308    2.3930   -9.4381 C.ar      1 <0>        -0.0944
     21 C20         5.8542    2.3091   -8.0949 C.ar      1 <0>        -0.0797
     22 C21         6.0810    1.0901   -7.4300 C.ar      1 <0>        -0.0053
     23 C22         5.8999    0.9774   -6.0414 C.ar      1 <0>        -0.1123
     24 C23         6.6254    1.3919  -11.6454 C.cat     1 <0>         0.6002
     25 N1          6.4044    2.5568  -12.2520 N.pl3     1 <0>        -0.7619
     26 N2          7.0133    0.3343  -12.3558 N.pl3     1 <0>        -0.7658
     27 H1          0.9761    1.6491    0.4200 H         1 <0>         0.0622
     28 H2         -0.5628    1.7880   -0.4636 H         1 <0>         0.0682
     29 H3         -0.5675    1.4532    1.2845 H         1 <0>         0.0749
     30 H4          0.5036   -0.7438    0.8666 H         1 <0>         0.0747
     31 H5         -1.9656   -0.2419   -0.8562 H         1 <0>         0.0678
     32 H6         -1.4262   -1.8269   -0.2522 H         1 <0>         0.0658
     33 H7         -1.9703   -0.5767    0.8920 H         1 <0>         0.0798
     34 H8          2.1304   -0.0477    0.9615 H         1 <0>         0.1314
     35 H9          4.5844   -0.2091    1.0581 H         1 <0>         0.1274
     36 H10         5.8610   -0.8037   -0.9607 H         1 <0>         0.1252
     37 H11         2.2323   -1.0875   -3.1826 H         1 <0>         0.1289
     38 H12         4.3693   -1.9225   -4.1759 H         1 <0>         0.1185
     39 H13         6.8196   -1.5430   -2.2552 H         1 <0>         0.1114
     40 H14         6.8470   -2.3887   -3.8940 H         1 <0>         0.1065
     41 H15         6.0513    0.6000   -3.3739 H         1 <0>         0.1246
     42 H16         6.7104   -2.2662   -5.6396 H         1 <0>         0.1397
     43 H17         7.0340   -2.1359   -8.0503 H         1 <0>         0.1404
     44 H18         6.9859   -0.7982  -10.1339 H         1 <0>         0.1409
     45 H19         5.8551    3.3323   -9.9413 H         1 <0>         0.1343
     46 H20         5.5399    3.1784   -7.5364 H         1 <0>         0.1488
     47 H21         5.5816    1.8333   -5.4647 H         1 <0>         0.1418
     48 H22         6.1218    3.3271  -11.7345 H         1 <0>         0.4446
     49 H23         7.1743   -0.5141  -11.9141 H         1 <0>         0.4429
     50 H24         7.1349    0.4125  -13.3150 H         1 <0>         0.4332
     51 H25         6.5259    2.6349  -13.2111 H         1 <0>         0.4327
@<TRIPOS>BOND
     1    1    2 1
     2    1   27 1
     3    1   28 1
     4    1   29 1
     5    2    3 1
     6    2    4 1
     7    2   30 1
     8    3   31 1
     9    3   32 1
    10    3   33 1
    11    4    5 1
    12    5   10 ar
    13    5    6 ar
    14    6    7 ar
    15    6   34 1
    16    7    8 ar
    17    7   35 1
    18    8    9 ar
    19    8   36 1
    20    9   10 ar
    21    9   11 1
    22   10   37 1
    23   11   13 1
    24   11   12 1
    25   11   38 1
    26   12   13 1
    27   12   39 1
    28   12   40 1
    29   13   14 1
    30   13   41 1
    31   14   23 ar
    32   14   15 ar
    33   15   16 ar
    34   15   42 1
    35   16   17 ar
    36   16   43 1
    37   17   22 ar
    38   17   18 ar
    39   18   19 ar
    40   18   44 1
    41   19   20 ar
    42   19   24 1
    43   20   21 ar
    44   20   45 1
    45   21   22 ar
    46   21   46 1
    47   22   23 ar
    48   23   47 1
    49   24   25 2
    50   24   26 1
    51   25   48 1
    52   25   51 1
    53   26   49 1
    54   26   50 1
@<TRIPOS>MOLECULE
CHEMBL182309__2
   51    54     0     0     0
SMALL
USER_CHARGES

@<TRIPOS>ATOM
      1 C1         -0.0444    1.2733    0.3453 C.3       1 <0>        -0.1826
      2 C2         -0.0148   -0.2291    0.0576 C.3       1 <0>         0.0771
      3 C3         -1.4472   -0.7566   -0.0472 C.3       1 <0>        -0.1503
      4 O1          0.6709   -0.4649   -1.1737 O.3       1 <0>        -0.3107
      5 C4          2.0259   -0.5530   -1.1182 C.ar      1 <0>         0.1387
      6 C5          2.6899   -0.3088    0.0754 C.ar      1 <0>        -0.2102
      7 C6          4.0671   -0.3994    0.1294 C.ar      1 <0>        -0.0733
      8 C7          4.7842   -0.7333   -1.0050 C.ar      1 <0>        -0.1587
      9 C8          4.1250   -0.9767   -2.1955 C.ar      1 <0>        -0.0212
     10 C9          2.7471   -0.8929   -2.2533 C.ar      1 <0>        -0.1466
     11 C10         4.9096   -1.3397   -3.4299 C.3       1 <0>        -0.0904
     12 C11         6.4337   -1.2267   -3.3569 C.3       1 <0>        -0.1613
     13 C12         5.7688   -2.6045   -3.3742 C.3       1 <0>        -0.1225
     14 C13         5.8897   -3.4197   -4.6360 C.ar      1 <0>        -0.0025
     15 C14         6.4344   -2.8378   -5.7792 C.ar      1 <0>        -0.1041
     16 C15         6.5576   -3.5464   -6.9345 C.ar      1 <0>        -0.0887
     17 C16         6.1304   -4.8857   -6.9785 C.ar      1 <0>        -0.0724
     18 C17         6.2434   -5.6450   -8.1530 C.ar      1 <0>        -0.0089
     19 C18         5.8123   -6.9603   -8.1573 C.ar      1 <0>        -0.1588
     20 C19         5.2647   -7.5360   -6.9974 C.ar      1 <0>        -0.0944
     21 C20         5.1475   -6.8170   -5.8520 C.ar      1 <0>        -0.0797
     22 C21         5.5765   -5.4776   -5.8150 C.ar      1 <0>        -0.0053
     23 C22         5.4703   -4.7148   -4.6400 C.ar      1 <0>        -0.1123
     24 C23         5.9281   -7.7663   -9.3921 C.cat     1 <0>         0.6002
     25 N1          5.5148   -9.0323   -9.4021 N.pl3     1 <0>        -0.7619
     26 N2          6.4455   -7.2260  -10.4939 N.pl3     1 <0>        -0.7658
     27 H1          0.9761    1.6491    0.4200 H         1 <0>         0.0628
     28 H2         -0.5628    1.7880   -0.4636 H         1 <0>         0.0690
     29 H3         -0.5675    1.4532    1.2845 H         1 <0>         0.0749
     30 H4          0.5036   -0.7438    0.8666 H         1 <0>         0.0742
     31 H5         -1.9656   -0.2419   -0.8562 H         1 <0>         0.0683
     32 H6         -1.4262   -1.8269   -0.2522 H         1 <0>         0.0648
     33 H7         -1.9703   -0.5767    0.8920 H         1 <0>         0.0797
     34 H8          2.1304   -0.0477    0.9615 H         1 <0>         0.1314
     35 H9          4.5844   -0.2091    1.0581 H         1 <0>         0.1274
     36 H10         5.8610   -0.8037   -0.9607 H         1 <0>         0.1252
     37 H11         2.2323   -1.0875   -3.1826 H         1 <0>         0.1289
     38 H12         4.4316   -1.0974   -4.3790 H         1 <0>         0.1185
     39 H13         6.9586   -0.9098   -4.2581 H         1 <0>         0.1065
     40 H14         6.8689   -0.8897   -2.4160 H         1 <0>         0.1114
     41 H15         5.7665   -3.1740   -2.4448 H         1 <0>         0.1246
     42 H16         6.7632   -1.8096   -5.7480 H         1 <0>         0.1398
     43 H17         6.9809   -3.0826   -7.8132 H         1 <0>         0.1404
     44 H18         6.6631   -5.2066   -9.0464 H         1 <0>         0.1409
     45 H19         4.9328   -8.5636   -7.0180 H         1 <0>         0.1343
     46 H20         4.7245   -7.2730   -4.9691 H         1 <0>         0.1488
     47 H21         5.0544   -5.1529   -3.7448 H         1 <0>         0.1418
     48 H22         5.1380   -9.4258   -8.5996 H         1 <0>         0.4446
     49 H23         6.7465   -6.3039  -10.4866 H         1 <0>         0.4429
     50 H24         6.5214   -7.7546  -11.3037 H         1 <0>         0.4332
     51 H25         5.5908   -9.5609  -10.2119 H         1 <0>         0.4327
@<TRIPOS>BOND
     1    1    2 1
     2    1   27 1
     3    1   28 1
     4    1   29 1
     5    2    3 1
     6    2    4 1
     7    2   30 1
     8    3   31 1
     9    3   32 1
    10    3   33 1
    11    4    5 1
    12    5   10 ar
    13    5    6 ar
    14    6    7 ar
    15    6   34 1
    16    7    8 ar
    17    7   35 1
    18    8    9 ar
    19    8   36 1
    20    9   10 ar
    21    9   11 1
    22   10   37 1
    23   11   13 1
    24   11   12 1
    25   11   38 1
    26   12   13 1
    27   12   39 1
    28   12   40 1
    29   13   14 1
    30   13   41 1
    31   14   23 ar
    32   14   15 ar
    33   15   16 ar
    34   15   42 1
    35   16   17 ar
    36   16   43 1
    37   17   22 ar
    38   17   18 ar
    39   18   19 ar
    40   18   44 1
    41   19   20 ar
    42   19   24 1
    43   20   21 ar
    44   20   45 1
    45   21   22 ar
    46   21   46 1
    47   22   23 ar
    48   23   47 1
    49   24   25 2
    50   24   26 1
    51   25   48 1
    52   25   51 1
    53   26   49 1
    54   26   50 1
@<TRIPOS>MOLECULE
CHEMBL182309__3
   51    54     0     0     0
SMALL
USER_CHARGES

@<TRIPOS>ATOM
      1 C1          5.2001   -0.3120    3.4960 C.3       1 <0>        -0.1772
      2 C2          5.8658    0.5979    2.4617 C.3       1 <0>         0.0767
      3 C3          7.0769    1.2873    3.0933 C.3       1 <0>        -0.1504
      4 O1          6.2920   -0.1836    1.3438 O.3       1 <0>        -0.3111
      5 C4          5.3720   -0.4250    0.3732 C.ar      1 <0>         0.1359
      6 C5          4.0580   -0.0129    0.5432 C.ar      1 <0>        -0.2127
      7 C6          3.1249   -0.2591   -0.4450 C.ar      1 <0>        -0.0750
      8 C7          3.4993   -0.9156   -1.6031 C.ar      1 <0>        -0.1471
      9 C8          4.8077   -1.3276   -1.7747 C.ar      1 <0>        -0.0165
     10 C9          5.7461   -1.0787   -0.7916 C.ar      1 <0>        -0.1509
     11 C10         5.2122   -2.0432   -3.0377 C.3       1 <0>        -0.0965
     12 C11         6.6429   -2.5794   -3.1187 C.3       1 <0>        -0.1659
     13 C12         5.4715   -3.5482   -2.9448 C.3       1 <0>        -0.1211
     14 C13         5.3030   -4.2015   -1.5973 C.ar      1 <0>        -0.0015
     15 C14         4.1632   -4.9614   -1.3409 C.ar      1 <0>        -0.0910
     16 C15         3.9806   -5.5644   -0.1346 C.ar      1 <0>        -0.0935
     17 C16         4.9547   -5.4209    0.8698 C.ar      1 <0>        -0.0699
     18 C17         4.7982   -6.0296    2.1243 C.ar      1 <0>        -0.0105
     19 C18         5.7788   -5.8658    3.0873 C.ar      1 <0>        -0.1591
     20 C19         6.9244   -5.0969    2.8164 C.ar      1 <0>        -0.0964
     21 C20         7.0929   -4.5008    1.6086 C.ar      1 <0>        -0.0757
     22 C21         6.1145   -4.6481    0.6085 C.ar      1 <0>        -0.0021
     23 C22         6.2690   -4.0450   -0.6510 C.ar      1 <0>        -0.1116
     24 C23         5.6201   -6.5042    4.4121 C.cat     1 <0>         0.6001
     25 N1          6.5604   -6.3500    5.3425 N.pl3     1 <0>        -0.7625
     26 N2          4.5368   -7.2332    4.6744 N.pl3     1 <0>        -0.7664
     27 H1          4.3373   -0.8032    3.0460 H         1 <0>         0.0602
     28 H2          5.9137   -1.0652    3.8301 H         1 <0>         0.0630
     29 H3          4.8751    0.2841    4.3487 H         1 <0>         0.0735
     30 H4          5.1523    1.3511    2.1276 H         1 <0>         0.0753
     31 H5          7.7904    0.5341    3.4275 H         1 <0>         0.0658
     32 H6          7.5512    1.9356    2.3565 H         1 <0>         0.0678
     33 H7          6.7518    1.8834    3.9460 H         1 <0>         0.0790
     34 H8          3.7650    0.4995    1.4476 H         1 <0>         0.1283
     35 H9          2.1019    0.0612   -0.3130 H         1 <0>         0.1263
     36 H10         2.7682   -1.1071   -2.3746 H         1 <0>         0.1250
     37 H11         6.7692   -1.3968   -0.9281 H         1 <0>         0.1279
     38 H12         4.7631   -1.6657   -3.9564 H         1 <0>         0.1275
     39 H13         7.1354   -2.5545   -4.0907 H         1 <0>         0.1119
     40 H14         7.2916   -2.4145   -2.2584 H         1 <0>         0.1040
     41 H15         5.1935   -4.1607   -3.8025 H         1 <0>         0.1292
     42 H16         3.4138   -5.0730   -2.1105 H         1 <0>         0.1372
     43 H17         3.0921   -6.1497    0.0507 H         1 <0>         0.1388
     44 H18         3.9197   -6.6207    2.3368 H         1 <0>         0.1395
     45 H19         7.6798   -4.9789    3.5792 H         1 <0>         0.1328
     46 H20         7.9781   -3.9129    1.4155 H         1 <0>         0.1469
     47 H21         7.1488   -3.4567   -0.8663 H         1 <0>         0.1397
     48 H22         7.3493   -5.8191    5.1514 H         1 <0>         0.4444
     49 H23         3.8520   -7.3455    3.9967 H         1 <0>         0.4428
     50 H24         4.4327   -7.6519    5.5432 H         1 <0>         0.4329
     51 H25         6.4562   -6.7687    6.2113 H         1 <0>         0.4323
@<TRIPOS>BOND
     1    1    2 1
     2    1   27 1
     3    1   28 1
     4    1   29 1
     5    2    3 1
     6    2    4 1
     7    2   30 1
     8    3   31 1
     9    3   32 1
    10    3   33 1
    11    4    5 1
    12    5   10 ar
    13    5    6 ar
    14    6    7 ar
    15    6   34 1
    16    7    8 ar
    17    7   35 1
    18    8    9 ar
    19    8   36 1
    20    9   10 ar
    21    9   11 1
    22   10   37 1
    23   11   13 1
    24   11   12 1
    25   11   38 1
    26   12   13 1
    27   12   39 1
    28   12   40 1
    29   13   14 1
    30   13   41 1
    31   14   23 ar
    32   14   15 ar
    33   15   16 ar
    34   15   42 1
    35   16   17 ar
    36   16   43 1
    37   17   22 ar
    38   17   18 ar
    39   18   19 ar
    40   18   44 1
    41   19   20 ar
    42   19   24 1
    43   20   21 ar
    44   20   45 1
    45   21   22 ar
    46   21   46 1
    47   22   23 ar
    48   23   47 1
    49   24   25 2
    50   24   26 1
    51   25   48 1
    52   25   51 1
    53   26   49 1
    54   26   50 1
@<TRIPOS>MOLECULE
CHEMBL103043
   34    36     0     0     0
SMALL
USER_CHARGES

@<TRIPOS>ATOM
      1 C1         -0.0361    1.3786    0.0627 C.ar      1 <0>        -0.0475
      2 C2          1.1167    2.1054    0.0549 C.ar      1 <0>        -0.1423
      3 C3          2.3589    1.4525    0.0208 C.ar      1 <0>         0.0070
      4 C4          3.5616    2.1839    0.0124 C.ar      1 <0>        -0.0782
      5 C5          4.7519    1.5329   -0.0208 C.ar      1 <0>        -0.0944
      6 C6          4.8044    0.1278   -0.0471 C.ar      1 <0>        -0.1632
      7 C7          3.6378   -0.6194   -0.0391 C.ar      1 <0>        -0.0153
      8 C8          2.4004    0.0353   -0.0049 C.ar      1 <0>        -0.0866
      9 C9          1.1897   -0.6926    0.0043 C.ar      1 <0>         0.1950
     10 C10        -0.0094   -0.0115    0.0377 C.ar      1 <0>        -0.1265
     11 N1          1.2066   -2.0852   -0.0205 N.pl3     1 <0>        -0.6333
     12 C11         0.1189   -2.7823   -0.5210 C.ar      1 <0>         0.5434
     13 N2         -0.8754   -2.1119   -1.0843 N.ar      1 <0>        -0.5517
     14 C12        -1.9280   -2.7469   -1.5724 C.ar      1 <0>         0.1879
     15 C13        -1.9823   -4.1295   -1.4889 C.ar      1 <0>        -0.2617
     16 C14        -0.9249   -4.7993   -0.8933 C.ar      1 <0>         0.1928
     17 N3          0.1003   -4.1040   -0.4298 N.ar      1 <0>        -0.5568
     18 C15         6.1139   -0.5568   -0.0841 C.cat     1 <0>         0.6023
     19 N4          7.1563    0.0304   -0.6702 N.pl3     1 <0>        -0.7585
     20 N5          6.2519   -1.7611    0.4687 N.pl3     1 <0>        -0.7634
     21 H1         -0.9864    1.8909    0.0932 H         1 <0>         0.1403
     22 H2          1.0745    3.1844    0.0747 H         1 <0>         0.1413
     23 H3          3.5371    3.2635    0.0319 H         1 <0>         0.1505
     24 H4          5.6704    2.1010   -0.0275 H         1 <0>         0.1372
     25 H5          3.6824   -1.6983   -0.0590 H         1 <0>         0.1335
     26 H6         -0.9375   -0.5637    0.0448 H         1 <0>         0.1611
     27 H7          1.9798   -2.5668    0.3126 H         1 <0>         0.4202
     28 H8         -2.7356   -2.1948   -2.0301 H         1 <0>         0.1780
     29 H9         -2.8302   -4.6729   -1.8790 H         1 <0>         0.1554
     30 H10        -0.9364   -5.8762   -0.8120 H         1 <0>         0.1775
     31 H11         7.0559    0.9072   -1.0727 H         1 <0>         0.4468
     32 H12         5.4929   -2.1886    0.8954 H         1 <0>         0.4440
     33 H13         7.1112   -2.2103    0.4444 H         1 <0>         0.4328
     34 H14         8.0156   -0.4188   -0.6945 H         1 <0>         0.4323
@<TRIPOS>BOND
     1    1   10 ar
     2    1    2 ar
     3    1   21 1
     4    2    3 ar
     5    2   22 1
     6    3    8 ar
     7    3    4 ar
     8    4    5 ar
     9    4   23 1
    10    5    6 ar
    11    5   24 1
    12    6    7 ar
    13    6   18 1
    14    7    8 ar
    15    7   25 1
    16    8    9 ar
    17    9   10 ar
    18    9   11 1
    19   10   26 1
    20   11   12 1
    21   11   27 1
    22   12   17 ar
    23   12   13 ar
    24   13   14 ar
    25   14   15 ar
    26   14   28 1
    27   15   16 ar
    28   15   29 1
    29   16   17 ar
    30   16   30 1
    31   18   19 2
    32   18   20 1
    33   19   31 1
    34   19   34 1
    35   20   32 1
    36   20   33 1
@<TRIPOS>MOLECULE
CHEMBL604500
   65    69     0     0     0
SMALL
USER_CHARGES

@<TRIPOS>ATOM
      1 C1          6.6901   -6.5403    6.2915 C.3       1 <0>        -0.1536
      2 C2          5.5674   -6.7455    5.2725 C.3       1 <0>         0.0625
      3 O1          4.6565   -5.6465    5.3395 O.3       1 <0>        -0.3225
      4 C3          3.6022   -5.6733    4.4997 C.2       1 <0>         0.5597
      5 O2          3.4605   -6.6046    3.7317 O.2       1 <0>        -0.4965
      6 C4          2.6229   -4.5751    4.5129 C.2       1 <0>         0.1491
      7 N1          2.6661   -3.5116    5.2893 N.2       1 <0>        -0.4055
      8 C5          1.6193   -2.7340    5.0265 C.2       1 <0>        -0.0173
      9 C6          0.8833   -3.3208    4.0497 C.2       1 <0>        -0.0064
     10 N2          1.5134   -4.4798    3.7164 N.pl3     1 <0>        -0.3689
     11 C7          1.1027   -5.4025    2.7451 C.ar      1 <0>         0.0884
     12 C8          2.0069   -5.8593    1.7949 C.ar      1 <0>        -0.0454
     13 C9          1.6024   -6.7677    0.8379 C.ar      1 <0>        -0.1077
     14 C10         0.2911   -7.2255    0.8253 C.ar      1 <0>         0.1588
     15 C11        -0.6131   -6.7690    1.7758 C.ar      1 <0>        -0.1300
     16 C12        -0.2071   -5.8645    2.7359 C.ar      1 <0>        -0.0818
     17 N3         -0.1194   -8.1466   -0.1457 N.am      1 <0>        -0.6614
     18 C13         0.7463   -9.0714   -0.6059 C.2       1 <0>         0.5275
     19 O3          1.8516   -9.1646   -0.1154 O.2       1 <0>        -0.4875
     20 C14         0.3408   -9.9896   -1.7300 C.3       1 <0>         0.1169
     21 C15        -0.7846  -10.8801   -1.2702 C.ar      1 <0>        -0.1412
     22 C16        -0.5131  -11.9937   -0.4974 C.ar      1 <0>        -0.0846
     23 C17        -1.5454  -12.8106   -0.0756 C.ar      1 <0>        -0.1147
     24 C18        -2.8492  -12.5136   -0.4261 C.ar      1 <0>        -0.0974
     25 C19        -3.1207  -11.3995   -1.1981 C.ar      1 <0>        -0.1114
     26 C20        -2.0889  -10.5802   -1.6163 C.ar      1 <0>        -0.1068
     27 O4          1.4578  -10.7936   -2.1147 O.3       1 <0>        -0.2717
     28 C21         1.4573  -11.2842   -3.3808 C.ar      1 <0>         0.2159
     29 C22         0.3587  -11.0953   -4.1846 C.ar      1 <0>        -0.2230
     30 C23         0.3211  -11.5817   -5.4839 C.ar      1 <0>         0.0051
     31 C24         1.4075  -12.2706   -5.9857 C.ar      1 <0>        -0.1250
     32 C25         2.5179  -12.4689   -5.1937 C.ar      1 <0>        -0.0389
     33 C26         2.5965  -11.9846   -3.8668 C.ar      1 <0>        -0.1566
     34 C27         3.7980  -12.2646   -3.1929 C.2       1 <0>         0.0352
     35 C28         4.7854  -12.9532   -3.8235 C.2       1 <0>        -0.2879
     36 S1          4.0826  -13.2733   -5.4322 S.3       1 <0>         0.1399
     37 C29         6.1046  -13.3454   -3.3050 C.cat     1 <0>         0.6506
     38 N4          6.9509  -14.0269   -4.0806 N.pl3     1 <0>        -0.7619
     39 N5          6.4556  -13.0201   -2.0588 N.pl3     1 <0>        -0.7589
     40 H1          6.2651   -6.4812    7.2934 H         1 <0>         0.0706
     41 H2          7.3849   -7.3786    6.2404 H         1 <0>         0.0822
     42 H3          7.2202   -5.6148    6.0666 H         1 <0>         0.0702
     43 H4          5.9925   -6.8045    4.2705 H         1 <0>         0.0693
     44 H5          5.0373   -7.6710    5.4974 H         1 <0>         0.0702
     45 H6          1.3936   -1.7946    5.5091 H         1 <0>         0.1902
     46 H7         -0.0285   -2.9380    3.6154 H         1 <0>         0.1939
     47 H8          3.0266   -5.5034    1.8048 H         1 <0>         0.1326
     48 H9          2.3054   -7.1224    0.0987 H         1 <0>         0.1427
     49 H10        -1.6327   -7.1249    1.7660 H         1 <0>         0.1403
     50 H11        -0.9089   -5.5129    3.4777 H         1 <0>         0.1399
     51 H12        -1.0269   -8.1192   -0.4872 H         1 <0>         0.4159
     52 H13         0.0096   -9.3962   -2.5823 H         1 <0>         0.1180
     53 H14         0.5055  -12.2257   -0.2236 H         1 <0>         0.1259
     54 H15        -1.3333  -13.6810    0.5275 H         1 <0>         0.1294
     55 H16        -3.6557  -13.1522   -0.0971 H         1 <0>         0.1308
     56 H17        -4.1393  -11.1676   -1.4722 H         1 <0>         0.1333
     57 H18        -2.3013   -9.7077   -2.2163 H         1 <0>         0.1293
     58 H19        -0.4936  -10.5571   -3.7968 H         1 <0>         0.1471
     59 H20        -0.5526  -11.4228   -6.0985 H         1 <0>         0.1553
     60 H21         1.3870  -12.6531   -6.9955 H         1 <0>         0.1499
     61 H22         3.9365  -11.9322   -2.1746 H         1 <0>         0.1538
     62 H23         6.6959  -14.2633   -4.9861 H         1 <0>         0.4445
     63 H24         5.8407  -12.5249   -1.4952 H         1 <0>         0.4460
     64 H25         7.3257  -13.2788   -1.7168 H         1 <0>         0.4367
     65 H26         7.8210  -14.2856   -3.7386 H         1 <0>         0.4367
@<TRIPOS>BOND
     1    1    2 1
     2    1   40 1
     3    1   41 1
     4    1   42 1
     5    2    3 1
     6    2   43 1
     7    2   44 1
     8    3    4 1
     9    4    5 2
    10    4    6 1
    11    6   10 1
    12    6    7 2
    13    7    8 1
    14    8    9 2
    15    8   45 1
    16    9   10 1
    17    9   46 1
    18   10   11 1
    19   11   16 ar
    20   11   12 ar
    21   12   13 ar
    22   12   47 1
    23   13   14 ar
    24   13   48 1
    25   14   15 ar
    26   14   17 1
    27   15   16 ar
    28   15   49 1
    29   16   50 1
    30   17   18 am
    31   17   51 1
    32   18   19 2
    33   18   20 1
    34   20   21 1
    35   20   27 1
    36   20   52 1
    37   21   26 ar
    38   21   22 ar
    39   22   23 ar
    40   22   53 1
    41   23   24 ar
    42   23   54 1
    43   24   25 ar
    44   24   55 1
    45   25   26 ar
    46   25   56 1
    47   26   57 1
    48   27   28 1
    49   28   33 ar
    50   28   29 ar
    51   29   30 ar
    52   29   58 1
    53   30   31 ar
    54   30   59 1
    55   31   32 ar
    56   31   60 1
    57   32   36 1
    58   32   33 ar
    59   33   34 1
    60   34   35 2
    61   34   61 1
    62   35   36 1
    63   35   37 1
    64   37   38 2
    65   37   39 1
    66   38   62 1
    67   38   65 1
    68   39   63 1
    69   39   64 1
@<TRIPOS>MOLECULE
CHEMBL604500__1
   65    69     0     0     0
SMALL
USER_CHARGES

@<TRIPOS>ATOM
      1 C1          8.0839   -5.0005    4.0692 C.3       1 <0>        -0.1536
      2 C2          6.7674   -5.4493    3.4318 C.3       1 <0>         0.0625
      3 O1          5.7655   -4.4560    3.6583 O.3       1 <0>        -0.3224
      4 C3          4.5378   -4.6995    3.1572 C.2       1 <0>         0.5598
      5 O2          4.3243   -5.7274    2.5447 O.2       1 <0>        -0.4966
      6 C4          3.4562   -3.7209    3.3519 C.2       1 <0>         0.1490
      7 N1          3.5598   -2.5724    3.9888 N.2       1 <0>        -0.4055
      8 C5          2.3838   -1.9512    3.9668 C.2       1 <0>        -0.0173
      9 C6          1.4999   -2.7292    3.2933 C.2       1 <0>        -0.0063
     10 N2          2.1707   -3.8448    2.8971 N.pl3     1 <0>        -0.3690
     11 C7          1.6449   -4.9182    2.1658 C.ar      1 <0>         0.0883
     12 C8          2.3132   -5.3863    1.0419 C.ar      1 <0>        -0.0452
     13 C9          1.7951   -6.4432    0.3213 C.ar      1 <0>        -0.1065
     14 C10         0.6055   -7.0390    0.7204 C.ar      1 <0>         0.1592
     15 C11        -0.0626   -6.5711    1.8447 C.ar      1 <0>        -0.1311
     16 C12         0.4583   -5.5175    2.5682 C.ar      1 <0>        -0.0821
     17 N3          0.0797   -8.1107   -0.0107 N.am      1 <0>        -0.6610
     18 C13         0.9083   -8.9837   -0.6173 C.2       1 <0>         0.5273
     19 O3          2.1068   -8.8971   -0.4522 O.2       1 <0>        -0.4874
     20 C14         0.3457  -10.0673   -1.5006 C.3       1 <0>         0.1171
     21 C15        -0.3142   -9.4432   -2.7030 C.ar      1 <0>        -0.1386
     22 C16         0.4402   -9.1194   -3.8152 C.ar      1 <0>        -0.0866
     23 C17        -0.1651   -8.5468   -4.9182 C.ar      1 <0>        -0.1145
     24 C18        -1.5250   -8.2985   -4.9092 C.ar      1 <0>        -0.0981
     25 C19        -2.2796   -8.6231   -3.7974 C.ar      1 <0>        -0.1106
     26 C20        -1.6749   -9.1996   -2.6961 C.ar      1 <0>        -0.1058
     27 O4          1.4023  -10.9281   -1.9303 O.3       1 <0>        -0.2718
     28 C21         1.0612  -12.1941   -2.2833 C.ar      1 <0>         0.2156
     29 C22        -0.2638  -12.5561   -2.3264 C.ar      1 <0>        -0.2226
     30 C23        -0.6514  -13.8403   -2.6825 C.ar      1 <0>         0.0051
     31 C24         0.3099  -14.7787   -3.0020 C.ar      1 <0>        -0.1249
     32 C25         1.6435  -14.4328   -2.9645 C.ar      1 <0>        -0.0390
     33 C26         2.0782  -13.1336   -2.6115 C.ar      1 <0>        -0.1564
     34 C27         3.4703  -12.9388   -2.6259 C.2       1 <0>         0.0352
     35 C28         4.2954  -13.9628   -2.9684 C.2       1 <0>        -0.2878
     36 S1          3.1583  -15.3000   -3.2896 S.3       1 <0>         0.1400
     37 C29         5.7640  -13.9696   -3.0466 C.cat     1 <0>         0.6506
     38 N4          6.4081  -15.0825   -3.4057 N.pl3     1 <0>        -0.7619
     39 N5          6.4530  -12.8631   -2.7585 N.pl3     1 <0>        -0.7589
     40 H1          7.9413   -4.8663    5.1414 H         1 <0>         0.0706
     41 H2          8.8482   -5.7582    3.8963 H         1 <0>         0.0821
     42 H3          8.4002   -4.0572    3.6239 H         1 <0>         0.0703
     43 H4          6.9101   -5.5835    2.3595 H         1 <0>         0.0695
     44 H5          6.4512   -6.3926    3.8771 H         1 <0>         0.0699
     45 H6          2.1690   -0.9900    4.4101 H         1 <0>         0.1902
     46 H7          0.4609   -2.5037    3.1036 H         1 <0>         0.1938
     47 H8          3.2381   -4.9231    0.7316 H         1 <0>         0.1325
     48 H9          2.3144   -6.8068   -0.5531 H         1 <0>         0.1427
     49 H10        -0.9875   -7.0343    2.1550 H         1 <0>         0.1405
     50 H11        -0.0588   -5.1565    3.4449 H         1 <0>         0.1400
     51 H12        -0.8810   -8.2251   -0.0808 H         1 <0>         0.4153
     52 H13        -0.3899  -10.6461   -0.9419 H         1 <0>         0.1170
     53 H14         1.5026   -9.3134   -3.8222 H         1 <0>         0.1259
     54 H15         0.4244   -8.2932   -5.7868 H         1 <0>         0.1292
     55 H16        -1.9978   -7.8505   -5.7707 H         1 <0>         0.1307
     56 H17        -3.3419   -8.4287   -3.7903 H         1 <0>         0.1332
     57 H18        -2.2651   -9.4566   -1.8289 H         1 <0>         0.1283
     58 H19        -1.0196  -11.8258   -2.0774 H         1 <0>         0.1473
     59 H20        -1.6983  -14.1041   -2.7093 H         1 <0>         0.1553
     60 H21         0.0177  -15.7805   -3.2800 H         1 <0>         0.1499
     61 H22         3.8838  -11.9757   -2.3652 H         1 <0>         0.1538
     62 H23         5.9075  -15.8865   -3.6151 H         1 <0>         0.4445
     63 H24         5.9850  -12.0545   -2.4975 H         1 <0>         0.4459
     64 H25         7.4216  -12.8676   -2.8101 H         1 <0>         0.4367
     65 H26         7.3767  -15.0870   -3.4573 H         1 <0>         0.4367
@<TRIPOS>BOND
     1    1    2 1
     2    1   40 1
     3    1   41 1
     4    1   42 1
     5    2    3 1
     6    2   43 1
     7    2   44 1
     8    3    4 1
     9    4    5 2
    10    4    6 1
    11    6   10 1
    12    6    7 2
    13    7    8 1
    14    8    9 2
    15    8   45 1
    16    9   10 1
    17    9   46 1
    18   10   11 1
    19   11   16 ar
    20   11   12 ar
    21   12   13 ar
    22   12   47 1
    23   13   14 ar
    24   13   48 1
    25   14   15 ar
    26   14   17 1
    27   15   16 ar
    28   15   49 1
    29   16   50 1
    30   17   18 am
    31   17   51 1
    32   18   19 2
    33   18   20 1
    34   20   21 1
    35   20   27 1
    36   20   52 1
    37   21   26 ar
    38   21   22 ar
    39   22   23 ar
    40   22   53 1
    41   23   24 ar
    42   23   54 1
    43   24   25 ar
    44   24   55 1
    45   25   26 ar
    46   25   56 1
    47   26   57 1
    48   27   28 1
    49   28   33 ar
    50   28   29 ar
    51   29   30 ar
    52   29   58 1
    53   30   31 ar
    54   30   59 1
    55   31   32 ar
    56   31   60 1
    57   32   36 1
    58   32   33 ar
    59   33   34 1
    60   34   35 2
    61   34   61 1
    62   35   36 1
    63   35   37 1
    64   37   38 2
    65   37   39 1
    66   38   62 1
    67   38   65 1
    68   39   63 1
    69   39   64 1
@<TRIPOS>MOLECULE
CHEMBL181595
   50    53     0     0     0
SMALL
USER_CHARGES

@<TRIPOS>ATOM
      1 C1          0.0177    1.4304   -0.1258 C.ar      1 <0>        -0.1201
      2 C2          1.2094    2.1309   -0.1160 C.ar      1 <0>        -0.1167
      3 C3          2.4119    1.4490   -0.1130 C.ar      1 <0>        -0.1166
      4 C4          2.4227    0.0667   -0.1192 C.ar      1 <0>        -0.0889
      5 C5          1.2309   -0.6337   -0.1280 C.ar      1 <0>        -0.1166
      6 C6          0.0285    0.0481   -0.1325 C.ar      1 <0>        -0.1167
      7 C7          3.7336   -0.6766   -0.1169 C.3       1 <0>        -0.0718
      8 C8          4.1710   -0.9346    1.3264 C.3       1 <0>        -0.0851
      9 C9          5.4819   -1.6780    1.3287 C.ar      1 <0>        -0.0063
     10 C10         5.4792   -3.0406    1.3170 C.ar      1 <0>        -0.1435
     11 C11         6.6931   -3.7458    1.3194 C.ar      1 <0>         0.0128
     12 C12         6.7130   -5.1533    1.3074 C.ar      1 <0>        -0.0800
     13 C13         7.8976   -5.8155    1.3100 C.ar      1 <0>        -0.0928
     14 C14         9.1159   -5.1132    1.3248 C.ar      1 <0>        -0.1658
     15 C15         9.1285   -3.7279    1.3364 C.ar      1 <0>        -0.0138
     16 C16         7.9157   -3.0278    1.3338 C.ar      1 <0>        -0.0899
     17 C17         7.8885   -1.6153    1.3453 C.ar      1 <0>         0.1980
     18 C18         6.6737   -0.9616    1.3371 C.ar      1 <0>        -0.1228
     19 N1          9.0772   -0.8895    1.3594 N.pl3     1 <0>        -0.6330
     20 C19         9.0971    0.3972    1.8728 C.ar      1 <0>         0.5437
     21 N2          8.0094    0.8770    2.4577 N.ar      1 <0>        -0.5505
     22 C20         7.9951    2.1011    2.9586 C.ar      1 <0>         0.1876
     23 C21         9.1359    2.8831    2.8657 C.ar      1 <0>        -0.2617
     24 C22        10.2562    2.3498    2.2475 C.ar      1 <0>         0.1927
     25 N3         10.2052    1.1166    1.7721 N.ar      1 <0>        -0.5566
     26 C23        10.3923   -5.8586    1.3284 C.cat     1 <0>         0.6024
     27 N4         10.4595   -7.0619    1.8963 N.pl3     1 <0>        -0.7589
     28 N5         11.4757   -5.3270    0.7639 N.pl3     1 <0>        -0.7638
     29 H1         -0.9218    1.9631   -0.1236 H         1 <0>         0.1232
     30 H2          1.2010    3.2108   -0.1112 H         1 <0>         0.1230
     31 H3          3.3429    1.9963   -0.1061 H         1 <0>         0.1197
     32 H4          1.2394   -1.7137   -0.1332 H         1 <0>         0.1209
     33 H5         -0.9026   -0.4991   -0.1397 H         1 <0>         0.1234
     34 H6          3.6129   -1.6276   -0.6355 H         1 <0>         0.0756
     35 H7          4.4908   -0.0793   -0.6247 H         1 <0>         0.0737
     36 H8          4.2916    0.0164    1.8451 H         1 <0>         0.0843
     37 H9          3.4137   -1.5319    1.8343 H         1 <0>         0.0841
     38 H10         4.5427   -3.5784    1.3061 H         1 <0>         0.1406
     39 H11         5.7854   -5.7063    1.2963 H         1 <0>         0.1499
     40 H12         7.9048   -6.8955    1.3011 H         1 <0>         0.1367
     41 H13        10.0662   -3.1922    1.3473 H         1 <0>         0.1330
     42 H14         6.6480    0.1180    1.3415 H         1 <0>         0.1620
     43 H15         9.8910   -1.2848    1.0098 H         1 <0>         0.4203
     44 H16         7.1054    2.4868    3.4339 H         1 <0>         0.1772
     45 H17         9.1515    3.8860    3.2659 H         1 <0>         0.1550
     46 H18        11.1609    2.9330    2.1583 H         1 <0>         0.1772
     47 H19        11.2971   -7.5510    1.8987 H         1 <0>         0.4321
     48 H20        11.4268   -4.4509    0.3505 H         1 <0>         0.4439
     49 H21        12.3133   -5.8161    0.7663 H         1 <0>         0.4326
     50 H22         9.6707   -7.4489    2.3073 H         1 <0>         0.4467
@<TRIPOS>BOND
     1    1    6 ar
     2    1    2 ar
     3    1   29 1
     4    2    3 ar
     5    2   30 1
     6    3    4 ar
     7    3   31 1
     8    4    5 ar
     9    4    7 1
    10    5    6 ar
    11    5   32 1
    12    6   33 1
    13    7    8 1
    14    7   34 1
    15    7   35 1
    16    8    9 1
    17    8   36 1
    18    8   37 1
    19    9   18 ar
    20    9   10 ar
    21   10   11 ar
    22   10   38 1
    23   11   16 ar
    24   11   12 ar
    25   12   13 ar
    26   12   39 1
    27   13   14 ar
    28   13   40 1
    29   14   15 ar
    30   14   26 1
    31   15   16 ar
    32   15   41 1
    33   16   17 ar
    34   17   18 ar
    35   17   19 1
    36   18   42 1
    37   19   20 1
    38   19   43 1
    39   20   25 ar
    40   20   21 ar
    41   21   22 ar
    42   22   23 ar
    43   22   44 1
    44   23   24 ar
    45   23   45 1
    46   24   25 ar
    47   24   46 1
    48   26   27 2
    49   26   28 1
    50   27   47 1
    51   27   50 1
    52   28   48 1
    53   28   49 1
@<TRIPOS>MOLECULE
CHEMBL597763
   53    56     0     0     0
SMALL
USER_CHARGES

@<TRIPOS>ATOM
      1 C1         -0.3370    1.0547   -1.7013 C.3       1 <0>         0.0279
      2 O1         -0.2283   -0.2551   -1.1402 O.3       1 <0>        -0.3216
      3 C2         -1.3585   -0.7961   -0.6121 C.ar      1 <0>         0.1047
      4 C3         -2.5471   -0.0845   -0.6387 C.ar      1 <0>        -0.1866
      5 C4         -3.6953   -0.6359   -0.1014 C.ar      1 <0>        -0.0898
      6 C5         -3.6621   -1.8978    0.4632 C.ar      1 <0>        -0.1350
      7 C6         -2.4807   -2.6142    0.4933 C.ar      1 <0>        -0.0955
      8 C7         -1.3256   -2.0694   -0.0483 C.ar      1 <0>         0.1122
      9 N1         -0.1276   -2.7959   -0.0233 N.am      1 <0>        -0.6473
     10 C8         -0.1567   -4.1409    0.0568 C.2       1 <0>         0.5243
     11 O2         -1.2166   -4.7287    0.0065 O.2       1 <0>        -0.4988
     12 C9          1.1275   -4.9146    0.2091 C.3       1 <0>         0.1145
     13 C10         1.9705   -4.7372   -1.0275 C.ar      1 <0>        -0.1360
     14 C11         1.6948   -5.4749   -2.1636 C.ar      1 <0>        -0.0844
     15 C12         2.4680   -5.3121   -3.2978 C.ar      1 <0>        -0.1165
     16 C13         3.5166   -4.4114   -3.2961 C.ar      1 <0>        -0.0984
     17 C14         3.7917   -3.6730   -2.1603 C.ar      1 <0>        -0.1114
     18 C15         3.0158   -3.8327   -1.0274 C.ar      1 <0>        -0.1037
     19 O3          0.8301   -6.3009    0.3879 O.3       1 <0>        -0.2704
     20 C16         1.6702   -7.0143    1.1811 C.ar      1 <0>         0.2172
     21 C17         2.8194   -6.4297    1.6565 C.ar      1 <0>        -0.2259
     22 C18         3.7023   -7.1267    2.4694 C.ar      1 <0>         0.0064
     23 C19         3.4256   -8.4355    2.8118 C.ar      1 <0>        -0.1261
     24 C20         2.2773   -9.0374    2.3443 C.ar      1 <0>        -0.0382
     25 C21         1.3506   -8.3593    1.5181 C.ar      1 <0>        -0.1574
     26 C22         0.2271   -9.1096    1.1297 C.2       1 <0>         0.0369
     27 C23         0.0893  -10.3936    1.5528 C.2       1 <0>        -0.2889
     28 S1          1.5576  -10.6493    2.5341 S.3       1 <0>         0.1385
     29 C24        -0.9978  -11.3417    1.2656 C.cat     1 <0>         0.6510
     30 N2         -0.9601  -12.5749    1.7755 N.pl3     1 <0>        -0.7623
     31 N3         -2.0223  -10.9690    0.4951 N.pl3     1 <0>        -0.7592
     32 H1          0.6339    1.3667   -2.0863 H         1 <0>         0.1037
     33 H2         -1.0633    1.0427   -2.5140 H         1 <0>         0.0586
     34 H3         -0.6643    1.7537   -0.9317 H         1 <0>         0.0593
     35 H4         -2.5764    0.9013   -1.0789 H         1 <0>         0.1358
     36 H5         -4.6207   -0.0795   -0.1224 H         1 <0>         0.1302
     37 H6         -4.5616   -2.3243    0.8820 H         1 <0>         0.1301
     38 H7         -2.4577   -3.5995    0.9349 H         1 <0>         0.1507
     39 H8          0.7226   -2.3307   -0.0638 H         1 <0>         0.4172
     40 H9          1.6735   -4.5453    1.0771 H         1 <0>         0.1188
     41 H10         0.8756   -6.1786   -2.1649 H         1 <0>         0.1258
     42 H11         2.2532   -5.8890   -4.1852 H         1 <0>         0.1287
     43 H12         4.1212   -4.2847   -4.1820 H         1 <0>         0.1301
     44 H13         4.6111   -2.9695   -2.1588 H         1 <0>         0.1326
     45 H14         3.2283   -3.2531   -0.1412 H         1 <0>         0.1283
     46 H15         3.0404   -5.4063    1.3916 H         1 <0>         0.1476
     47 H16         4.6004   -6.6485    2.8317 H         1 <0>         0.1555
     48 H17         4.1071   -8.9858    3.4437 H         1 <0>         0.1498
     49 H18        -0.5263   -8.6658    0.4958 H         1 <0>         0.1539
     50 H19        -0.2157  -12.8457    2.3354 H         1 <0>         0.4444
     51 H20        -2.0497  -10.0729    0.1246 H         1 <0>         0.4459
     52 H21        -2.7393  -11.5942    0.3057 H         1 <0>         0.4365
     53 H22        -1.6771  -13.2002    1.5861 H         1 <0>         0.4365
@<TRIPOS>BOND
     1    1    2 1
     2    1   32 1
     3    1   33 1
     4    1   34 1
     5    2    3 1
     6    3    8 ar
     7    3    4 ar
     8    4    5 ar
     9    4   35 1
    10    5    6 ar
    11    5   36 1
    12    6    7 ar
    13    6   37 1
    14    7    8 ar
    15    7   38 1
    16    8    9 1
    17    9   10 am
    18    9   39 1
    19   10   11 2
    20   10   12 1
    21   12   13 1
    22   12   19 1
    23   12   40 1
    24   13   18 ar
    25   13   14 ar
    26   14   15 ar
    27   14   41 1
    28   15   16 ar
    29   15   42 1
    30   16   17 ar
    31   16   43 1
    32   17   18 ar
    33   17   44 1
    34   18   45 1
    35   19   20 1
    36   20   25 ar
    37   20   21 ar
    38   21   22 ar
    39   21   46 1
    40   22   23 ar
    41   22   47 1
    42   23   24 ar
    43   23   48 1
    44   24   28 1
    45   24   25 ar
    46   25   26 1
    47   26   27 2
    48   26   49 1
    49   27   28 1
    50   27   29 1
    51   29   30 2
    52   29   31 1
    53   30   50 1
    54   30   53 1
    55   31   51 1
    56   31   52 1
@<TRIPOS>MOLECULE
CHEMBL597763__1
   53    56     0     0     0
SMALL
USER_CHARGES

@<TRIPOS>ATOM
      1 C1         -0.3331    1.0377   -1.7495 C.3       1 <0>         0.0277
      2 O1         -0.2109   -0.2625   -1.1694 O.3       1 <0>        -0.3229
      3 C2         -1.3124   -0.7702   -0.5547 C.ar      1 <0>         0.1041
      4 C3         -2.4865   -0.0357   -0.5158 C.ar      1 <0>        -0.1866
      5 C4         -3.6056   -0.5532    0.1096 C.ar      1 <0>        -0.0897
      6 C5         -3.5575   -1.8040    0.6972 C.ar      1 <0>        -0.1346
      7 C6         -2.3904   -2.5432    0.6624 C.ar      1 <0>        -0.0935
      8 C7         -1.2648   -2.0325    0.0325 C.ar      1 <0>         0.1132
      9 N1         -0.0817   -2.7821   -0.0084 N.am      1 <0>        -0.6470
     10 C8         -0.1313   -4.1254    0.0897 C.2       1 <0>         0.5265
     11 O2         -1.2031   -4.6929    0.1092 O.2       1 <0>        -0.4974
     12 C9          1.1449   -4.9223    0.1751 C.3       1 <0>         0.1147
     13 C10         1.8626   -4.5856    1.4567 C.ar      1 <0>        -0.1355
     14 C11         1.5347   -5.2452    2.6264 C.ar      1 <0>        -0.0876
     15 C12         2.1931   -4.9363    3.8020 C.ar      1 <0>        -0.1161
     16 C13         3.1797   -3.9681    3.8077 C.ar      1 <0>        -0.0992
     17 C14         3.5083   -3.3091    2.6378 C.ar      1 <0>        -0.1109
     18 C15         2.8529   -3.6210    1.4614 C.ar      1 <0>        -0.1030
     19 O3          0.8374   -6.3177    0.1538 O.3       1 <0>        -0.2708
     20 C16         1.8107   -7.1568   -0.2850 C.ar      1 <0>         0.2185
     21 C17         2.9869   -6.6403   -0.7729 C.ar      1 <0>        -0.2251
     22 C18         4.0045   -7.4659   -1.2303 C.ar      1 <0>         0.0068
     23 C19         3.8379   -8.8362   -1.1965 C.ar      1 <0>        -0.1264
     24 C20         2.6647   -9.3715   -0.7099 C.ar      1 <0>        -0.0380
     25 C21         1.6068   -8.5640   -0.2304 C.ar      1 <0>        -0.1575
     26 C22         0.4797   -9.2619    0.2373 C.2       1 <0>         0.0366
     27 C23         0.4638  -10.6205    0.2116 C.2       1 <0>        -0.2891
     28 S1          2.0526  -11.0240   -0.4936 S.3       1 <0>         0.1384
     29 C24        -0.6032  -11.5331    0.6492 C.cat     1 <0>         0.6509
     30 N2         -0.4362  -12.8536    0.5458 N.pl3     1 <0>        -0.7622
     31 N3         -1.7388  -11.0411    1.1498 N.pl3     1 <0>        -0.7594
     32 H1          0.6149    1.3225   -2.2059 H         1 <0>         0.1039
     33 H2         -1.1132    1.0241   -2.5107 H         1 <0>         0.0588
     34 H3         -0.5942    1.7583   -0.9745 H         1 <0>         0.0592
     35 H4         -2.5275    0.9415   -0.9738 H         1 <0>         0.1359
     36 H5         -4.5197    0.0211    0.1395 H         1 <0>         0.1303
     37 H6         -4.4341   -2.2041    1.1850 H         1 <0>         0.1302
     38 H7         -2.3556   -3.5198    1.1222 H         1 <0>         0.1497
     39 H8          0.7731   -2.3343   -0.1072 H         1 <0>         0.4164
     40 H9          1.7833   -4.6780   -0.6739 H         1 <0>         0.1172
     41 H10         0.7639   -6.0016    2.6219 H         1 <0>         0.1252
     42 H11         1.9363   -5.4511    4.7160 H         1 <0>         0.1284
     43 H12         3.6936   -3.7262    4.7263 H         1 <0>         0.1301
     44 H13         4.2789   -2.5524    2.6424 H         1 <0>         0.1327
     45 H14         3.1121   -3.1088    0.5466 H         1 <0>         0.1282
     46 H15         3.1222   -5.5692   -0.8014 H         1 <0>         0.1472
     47 H16         4.9209   -7.0391   -1.6105 H         1 <0>         0.1553
     48 H17         4.6242   -9.4864   -1.5506 H         1 <0>         0.1497
     49 H18        -0.3730   -8.7186    0.6170 H         1 <0>         0.1535
     50 H19         0.3889  -13.2111    0.1820 H         1 <0>         0.4444
     51 H20        -1.8601  -10.0816    1.2249 H         1 <0>         0.4458
     52 H21        -2.4426  -11.6430    1.4384 H         1 <0>         0.4366
     53 H22        -1.1400  -13.4555    0.8344 H         1 <0>         0.4365
@<TRIPOS>BOND
     1    1    2 1
     2    1   32 1
     3    1   33 1
     4    1   34 1
     5    2    3 1
     6    3    8 ar
     7    3    4 ar
     8    4    5 ar
     9    4   35 1
    10    5    6 ar
    11    5   36 1
    12    6    7 ar
    13    6   37 1
    14    7    8 ar
    15    7   38 1
    16    8    9 1
    17    9   10 am
    18    9   39 1
    19   10   11 2
    20   10   12 1
    21   12   13 1
    22   12   19 1
    23   12   40 1
    24   13   18 ar
    25   13   14 ar
    26   14   15 ar
    27   14   41 1
    28   15   16 ar
    29   15   42 1
    30   16   17 ar
    31   16   43 1
    32   17   18 ar
    33   17   44 1
    34   18   45 1
    35   19   20 1
    36   20   25 ar
    37   20   21 ar
    38   21   22 ar
    39   21   46 1
    40   22   23 ar
    41   22   47 1
    42   23   24 ar
    43   23   48 1
    44   24   28 1
    45   24   25 ar
    46   25   26 1
    47   26   27 2
    48   26   49 1
    49   27   28 1
    50   27   29 1
    51   29   30 2
    52   29   31 1
    53   30   50 1
    54   30   53 1
    55   31   51 1
    56   31   52 1
@<TRIPOS>MOLECULE
CHEMBL360195
   45    48     0     0     0
SMALL
USER_CHARGES

@<TRIPOS>ATOM
      1 C1         -0.0167    1.3796    0.0096 C.ar      1 <0>        -0.1060
      2 C2          1.1681    2.0946    0.0022 C.ar      1 <0>        -0.1201
      3 C3          2.3774    1.4317   -0.0134 C.ar      1 <0>        -0.0992
      4 C4          2.4043    0.0345   -0.0211 C.ar      1 <0>        -0.0785
      5 C5          1.2037   -0.6807   -0.0130 C.ar      1 <0>        -0.1047
      6 C6          0.0021   -0.0041    0.0020 C.ar      1 <0>        -0.1197
      7 C7          3.6924   -0.6812   -0.0381 C.2       1 <0>        -0.0617
      8 C8          3.7145   -2.0242   -0.0455 C.2       1 <0>        -0.1446
      9 C9          5.0020   -2.7396   -0.0626 C.ar      1 <0>         0.0108
     10 C10         6.1836   -2.0132   -0.0652 C.ar      1 <0>        -0.1314
     11 C11         7.4202   -2.6702   -0.0813 C.ar      1 <0>         0.0054
     12 C12         8.6265   -1.9423   -0.0836 C.ar      1 <0>        -0.0854
     13 C13         9.8147   -2.5980   -0.0989 C.ar      1 <0>        -0.0885
     14 C14         9.8623   -4.0032   -0.1126 C.ar      1 <0>        -0.1675
     15 C15         8.6915   -4.7468   -0.1107 C.ar      1 <0>        -0.0156
     16 C16         7.4587   -4.0886   -0.0950 C.ar      1 <0>        -0.0660
     17 C17         6.2035   -4.8368   -0.0920 C.ar      1 <0>         0.0216
     18 C18         5.0095   -4.1432   -0.0701 C.ar      1 <0>        -0.0880
     19 C19         6.2117   -6.3182   -0.1065 C.2       1 <0>        -0.1599
     20 C20         5.4673   -7.2172    0.7836 C.2       1 <0>        -0.1999
     21 C21         5.7841   -8.4649    0.3998 C.2       1 <0>        -0.0180
     22 O1          6.6424   -8.4014   -0.6295 O.3       1 <0>        -0.1741
     23 C22         6.9060   -7.1270   -0.9509 C.2       1 <0>        -0.0213
     24 C23        11.1693   -4.6929   -0.1297 C.cat     1 <0>         0.6024
     25 N1         12.2202   -4.1145   -0.7097 N.pl3     1 <0>        -0.7595
     26 N2         11.2968   -5.8930    0.4348 N.pl3     1 <0>        -0.7628
     27 H1         -0.9607    1.9041    0.0260 H         1 <0>         0.1269
     28 H2          1.1457    3.1743    0.0081 H         1 <0>         0.1279
     29 H3          3.3013    1.9910   -0.0199 H         1 <0>         0.1260
     30 H4          1.2169   -1.7606   -0.0189 H         1 <0>         0.1256
     31 H5         -0.9266   -0.5554    0.0082 H         1 <0>         0.1274
     32 H6          4.6187   -0.1259   -0.0447 H         1 <0>         0.1260
     33 H7          2.7882   -2.5795   -0.0389 H         1 <0>         0.1323
     34 H8          6.1497   -0.9338   -0.0551 H         1 <0>         0.1424
     35 H9          8.6057   -0.8626   -0.0735 H         1 <0>         0.1493
     36 H10        10.7353   -2.0333   -0.1009 H         1 <0>         0.1374
     37 H11         8.7322   -5.8260   -0.1217 H         1 <0>         0.1406
     38 H12         4.0749   -4.6844   -0.0630 H         1 <0>         0.1413
     39 H13         4.8008   -6.9332    1.5846 H         1 <0>         0.1585
     40 H14         5.4086   -9.3730    0.8478 H         1 <0>         0.2112
     41 H15         7.5605   -6.7983   -1.7446 H         1 <0>         0.2035
     42 H16        12.1274   -3.2408   -1.1207 H         1 <0>         0.4464
     43 H17        10.5317   -6.3141    0.8571 H         1 <0>         0.4450
     44 H18        12.1546   -6.3456    0.4236 H         1 <0>         0.4326
     45 H19        13.0781   -4.5671   -0.7209 H         1 <0>         0.4323
@<TRIPOS>BOND
     1    1    6 ar
     2    1    2 ar
     3    1   27 1
     4    2    3 ar
     5    2   28 1
     6    3    4 ar
     7    3   29 1
     8    4    5 ar
     9    4    7 1
    10    5    6 ar
    11    5   30 1
    12    6   31 1
    13    7    8 2
    14    7   32 1
    15    8    9 1
    16    8   33 1
    17    9   18 ar
    18    9   10 ar
    19   10   11 ar
    20   10   34 1
    21   11   16 ar
    22   11   12 ar
    23   12   13 ar
    24   12   35 1
    25   13   14 ar
    26   13   36 1
    27   14   15 ar
    28   14   24 1
    29   15   16 ar
    30   15   37 1
    31   16   17 ar
    32   17   18 ar
    33   17   19 1
    34   18   38 1
    35   19   23 2
    36   19   20 1
    37   20   21 2
    38   20   39 1
    39   21   22 1
    40   21   40 1
    41   22   23 1
    42   23   41 1
    43   24   25 2
    44   24   26 1
    45   25   42 1
    46   25   45 1
    47   26   43 1
    48   26   44 1
@<TRIPOS>MOLECULE
CHEMBL265315
   61    62     0     0     0
SMALL
USER_CHARGES

@<TRIPOS>ATOM
      1 C1         -0.0167    1.3781    0.0096 C.ar      1 <0>        -0.1205
      2 C2          1.1709    2.0855    0.0021 C.ar      1 <0>        -0.1206
      3 C3          2.3773    1.4107   -0.0130 C.ar      1 <0>        -0.1198
      4 C4          2.3960    0.0285   -0.0201 C.ar      1 <0>        -0.0742
      5 C5          1.2084   -0.6789   -0.0117 C.ar      1 <0>        -0.0905
      6 C6          0.0021   -0.0041    0.0020 C.ar      1 <0>        -0.1202
      7 C7          3.7112   -0.7071   -0.0376 C.3       1 <0>        -0.0650
      8 C8          4.1714   -0.9633    1.3989 C.3       1 <0>         0.0891
      9 H1          4.2087   -0.0191    1.9423 H         1 <0>         0.1031
     10 C9          5.5425   -1.5884    1.3832 C.2       1 <0>         0.5100
     11 O1          5.6646   -2.7862    1.5290 O.2       1 <0>        -0.5338
     12 N1          6.6331   -0.8163    1.2072 N.am      1 <0>        -0.5994
     13 C10         6.6299    0.6467    1.0255 C.3       1 <0>         0.0958
     14 C11         8.0362    1.1064    1.4846 C.3       1 <0>        -0.1337
     15 C12         8.9265   -0.0571    0.9737 C.3       1 <0>        -0.1240
     16 C13         8.0235   -1.2928    1.1711 C.3       1 <0>         0.1194
     17 H2          8.1570   -1.9838    0.3387 H         1 <0>         0.0956
     18 C14         8.3645   -1.9778    2.4694 C.2       1 <0>         0.5085
     19 O2          7.5314   -2.0641    3.3465 O.2       1 <0>        -0.4847
     20 N2          9.5952   -2.4945    2.6557 N.am      1 <0>        -0.7357
     21 C15         9.9267   -3.1605    3.9178 C.3       1 <0>         0.1421
     22 H3          9.0492   -3.6880    4.2917 H         1 <0>         0.1024
     23 C16        11.0616   -4.1597    3.6845 C.3       1 <0>        -0.1244
     24 C17        10.5771   -5.2736    2.7542 C.3       1 <0>        -0.1347
     25 C18        11.7120   -6.2729    2.5209 C.3       1 <0>         0.0833
     26 N3         11.2481   -7.3394    1.6301 N.pl3     1 <0>        -0.6575
     27 C19        12.0562   -8.3053    1.2940 C.cat     1 <0>         0.7385
     28 N4         13.3439   -8.3232    1.7753 N.pl3     1 <0>        -0.8121
     29 N5         11.6209   -9.3062    0.4580 N.pl3     1 <0>        -0.8140
     30 C20        10.3697   -2.1161    4.9445 C.3       1 <0>        -0.0611
     31 Cl1         9.0323   -0.9386    5.2194 Cl        1 <0>        -0.1479
     32 N6          3.2263   -1.8723    2.0611 N.3       1 <0>        -0.8109
     33 H4         -0.9591    1.9053    0.0259 H         1 <0>         0.1204
     34 H5          1.1563    3.1654    0.0076 H         1 <0>         0.1207
     35 H6          3.3051    1.9634   -0.0196 H         1 <0>         0.1171
     36 H7          1.2231   -1.7588   -0.0176 H         1 <0>         0.1195
     37 H8         -0.9258   -0.5567    0.0082 H         1 <0>         0.1207
     38 H9          3.5884   -1.6586   -0.5549 H         1 <0>         0.0768
     39 H10         4.4573   -0.1052   -0.5563 H         1 <0>         0.0785
     40 H11         6.4721    0.8983   -0.0232 H         1 <0>         0.0785
     41 H12         5.8597    1.1044    1.6464 H         1 <0>         0.0830
     42 H13         8.3136    2.0479    1.0105 H         1 <0>         0.0935
     43 H14         8.0853    1.1882    2.5704 H         1 <0>         0.0802
     44 H15         9.1738    0.0801   -0.0790 H         1 <0>         0.0906
     45 H16         9.8312   -0.1434    1.5755 H         1 <0>         0.0855
     46 H17        10.2615   -2.4255    1.9542 H         1 <0>         0.3971
     47 H18        11.9085   -3.6476    3.2278 H         1 <0>         0.0826
     48 H19        11.3683   -4.5902    4.6378 H         1 <0>         0.0923
     49 H20         9.7302   -5.7858    3.2109 H         1 <0>         0.0874
     50 H21        10.2704   -4.8431    1.8010 H         1 <0>         0.0859
     51 H22        12.5589   -5.7607    2.0642 H         1 <0>         0.1012
     52 H23        12.0187   -6.7034    3.4742 H         1 <0>         0.1017
     53 H24        13.6510   -7.6170    2.3651 H         1 <0>         0.4371
     54 H25        13.9453   -9.0420    1.5252 H         1 <0>         0.4388
     55 H26        10.7124   -9.2936    0.1184 H         1 <0>         0.4389
     56 H27        12.2223  -10.0250    0.2078 H         1 <0>         0.4393
     57 H28        10.6163   -2.6116    5.8835 H         1 <0>         0.0999
     58 H29        11.2472   -1.5886    4.5706 H         1 <0>         0.0930
     59 H30         3.1738   -2.7554    1.5759 H         1 <0>         0.3481
     60 H31         3.4724   -2.0064    3.0304 H         1 <0>         0.3483
     61 H32        10.3396   -7.3268    1.2905 H         1 <0>         0.4401
@<TRIPOS>BOND
     1    1    6 ar
     2    1    2 ar
     3    1   33 1
     4    2    3 ar
     5    2   34 1
     6    3    4 ar
     7    3   35 1
     8    4    5 ar
     9    4    7 1
    10    5    6 ar
    11    5   36 1
    12    6   37 1
    13    7    8 1
    14    7   38 1
    15    7   39 1
    16    8    9 1
    17    8   10 1
    18    8   32 1
    19   10   11 2
    20   10   12 am
    21   12   16 1
    22   12   13 1
    23   13   14 1
    24   13   40 1
    25   13   41 1
    26   14   15 1
    27   14   42 1
    28   14   43 1
    29   15   16 1
    30   15   44 1
    31   15   45 1
    32   16   17 1
    33   16   18 1
    34   18   19 2
    35   18   20 am
    36   20   21 1
    37   20   46 1
    38   21   22 1
    39   21   23 1
    40   21   30 1
    41   23   24 1
    42   23   47 1
    43   23   48 1
    44   24   25 1
    45   24   49 1
    46   24   50 1
    47   25   26 1
    48   25   51 1
    49   25   52 1
    50   26   27 2
    51   26   61 1
    52   27   28 1
    53   27   29 1
    54   28   53 1
    55   28   54 1
    56   29   55 1
    57   29   56 1
    58   30   31 1
    59   30   57 1
    60   30   58 1
    61   32   59 1
    62   32   60 1
@<TRIPOS>MOLECULE
CHEMBL265315__1
   62    63     0     0     0
SMALL
USER_CHARGES

@<TRIPOS>ATOM
      1 C1         -0.0167    1.3781    0.0096 C.ar      1 <0>        -0.0980
      2 C2          1.1709    2.0855    0.0021 C.ar      1 <0>        -0.1039
      3 C3          2.3773    1.4107   -0.0130 C.ar      1 <0>        -0.1028
      4 C4          2.3960    0.0285   -0.0201 C.ar      1 <0>        -0.1341
      5 C5          1.2084   -0.6789   -0.0117 C.ar      1 <0>        -0.1387
      6 C6          0.0021   -0.0041    0.0020 C.ar      1 <0>        -0.1053
      7 C7          3.7112   -0.7071   -0.0376 C.3       1 <0>        -0.0896
      8 C8          4.1714   -0.9633    1.3989 C.3       1 <0>         0.0176
      9 H1          4.2087   -0.0191    1.9423 H         1 <0>         0.1636
     10 C9          5.5425   -1.5884    1.3832 C.2       1 <0>         0.5315
     11 O1          5.6646   -2.7862    1.5290 O.2       1 <0>        -0.5144
     12 N1          6.6331   -0.8163    1.2072 N.am      1 <0>        -0.5794
     13 C10         6.6299    0.6467    1.0255 C.3       1 <0>         0.0845
     14 C11         8.0362    1.1064    1.4846 C.3       1 <0>        -0.1339
     15 C12         8.9265   -0.0571    0.9737 C.3       1 <0>        -0.1269
     16 C13         8.0235   -1.2928    1.1711 C.3       1 <0>         0.1203
     17 H2          8.1570   -1.9838    0.3387 H         1 <0>         0.1093
     18 C14         8.3645   -1.9778    2.4694 C.2       1 <0>         0.5129
     19 O2          7.5314   -2.0641    3.3465 O.2       1 <0>        -0.4981
     20 N2          9.5952   -2.4945    2.6557 N.am      1 <0>        -0.7288
     21 C15         9.9267   -3.1605    3.9178 C.3       1 <0>         0.1437
     22 H3          9.0492   -3.6880    4.2917 H         1 <0>         0.1040
     23 C16        11.0616   -4.1597    3.6845 C.3       1 <0>        -0.1283
     24 C17        10.5771   -5.2736    2.7542 C.3       1 <0>        -0.1322
     25 C18        11.7120   -6.2729    2.5209 C.3       1 <0>         0.0823
     26 N3         11.2481   -7.3394    1.6301 N.pl3     1 <0>        -0.6607
     27 C19        12.0562   -8.3053    1.2940 C.cat     1 <0>         0.7395
     28 N4         13.3439   -8.3232    1.7753 N.pl3     1 <0>        -0.8100
     29 N5         11.6209   -9.3062    0.4580 N.pl3     1 <0>        -0.8126
     30 C20        10.3697   -2.1161    4.9445 C.3       1 <0>        -0.0603
     31 Cl1         9.0323   -0.9386    5.2194 Cl        1 <0>        -0.1539
     32 N6          3.2263   -1.8723    2.0611 N.4       1 <0>        -0.6207
     33 H4         -0.9591    1.9053    0.0259 H         1 <0>         0.1349
     34 H5          1.1563    3.1654    0.0076 H         1 <0>         0.1350
     35 H6          3.3051    1.9634   -0.0196 H         1 <0>         0.1297
     36 H7          1.2231   -1.7588   -0.0176 H         1 <0>         0.1231
     37 H8         -0.9258   -0.5567    0.0082 H         1 <0>         0.1342
     38 H9          3.5884   -1.6586   -0.5549 H         1 <0>         0.1062
     39 H10         4.4573   -0.1052   -0.5563 H         1 <0>         0.1228
     40 H11         6.4721    0.8983   -0.0232 H         1 <0>         0.0914
     41 H12         5.8597    1.1044    1.6464 H         1 <0>         0.0865
     42 H13         8.3136    2.0479    1.0105 H         1 <0>         0.1030
     43 H14         8.0853    1.1882    2.5704 H         1 <0>         0.0859
     44 H15         9.1738    0.0801   -0.0790 H         1 <0>         0.0985
     45 H16         9.8312   -0.1434    1.5755 H         1 <0>         0.0947
     46 H17        10.2615   -2.4255    1.9542 H         1 <0>         0.4015
     47 H18        11.9085   -3.6476    3.2278 H         1 <0>         0.0854
     48 H19        11.3683   -4.5902    4.6378 H         1 <0>         0.0963
     49 H20         9.7302   -5.7858    3.2109 H         1 <0>         0.0864
     50 H21        10.2704   -4.8431    1.8010 H         1 <0>         0.0836
     51 H22        12.5589   -5.7607    2.0642 H         1 <0>         0.1020
     52 H23        12.0187   -6.7034    3.4742 H         1 <0>         0.1027
     53 H24        13.6510   -7.6170    2.3651 H         1 <0>         0.4373
     54 H25        13.9453   -9.0420    1.5252 H         1 <0>         0.4405
     55 H26        10.7124   -9.2936    0.1184 H         1 <0>         0.4383
     56 H27        12.2223  -10.0250    0.2078 H         1 <0>         0.4410
     57 H28        10.6163   -2.6116    5.8835 H         1 <0>         0.1045
     58 H29        11.2472   -1.5886    4.5706 H         1 <0>         0.0966
     59 H30         3.1918   -2.7463    1.5581 H         1 <0>         0.4395
     60 H31         3.5298   -2.0413    3.0084 H         1 <0>         0.4423
     61 H32        10.3396   -7.3268    1.2905 H         1 <0>         0.4383
     62 H33         2.3083   -1.4538    2.0716 H         1 <0>         0.4414
@<TRIPOS>BOND
     1    1    6 ar
     2    1    2 ar
     3    1   33 1
     4    2    3 ar
     5    2   34 1
     6    3    4 ar
     7    3   35 1
     8    4    5 ar
     9    4    7 1
    10    5    6 ar
    11    5   36 1
    12    6   37 1
    13    7    8 1
    14    7   38 1
    15    7   39 1
    16    8    9 1
    17    8   10 1
    18    8   32 1
    19   10   11 2
    20   10   12 am
    21   12   16 1
    22   12   13 1
    23   13   14 1
    24   13   40 1
    25   13   41 1
    26   14   15 1
    27   14   42 1
    28   14   43 1
    29   15   16 1
    30   15   44 1
    31   15   45 1
    32   16   17 1
    33   16   18 1
    34   18   19 2
    35   18   20 am
    36   20   21 1
    37   20   46 1
    38   21   22 1
    39   21   23 1
    40   21   30 1
    41   23   24 1
    42   23   47 1
    43   23   48 1
    44   24   25 1
    45   24   49 1
    46   24   50 1
    47   25   26 1
    48   25   51 1
    49   25   52 1
    50   26   27 2
    51   26   61 1
    52   27   28 1
    53   27   29 1
    54   28   53 1
    55   28   54 1
    56   29   55 1
    57   29   56 1
    58   30   31 1
    59   30   57 1
    60   30   58 1
    61   32   59 1
    62   32   60 1
    63   32   62 1
@<TRIPOS>MOLECULE
CHEMBL282830
   77    81     0     0     0
SMALL
USER_CHARGES

@<TRIPOS>ATOM
      1 C1         -0.0167    1.3781    0.0096 C.ar      1 <0>        -0.0998
      2 C2          1.1709    2.0855    0.0021 C.ar      1 <0>        -0.1046
      3 C3          2.3773    1.4107   -0.0130 C.ar      1 <0>        -0.1044
      4 C4          2.3960    0.0285   -0.0201 C.ar      1 <0>        -0.1303
      5 C5          1.2084   -0.6789   -0.0117 C.ar      1 <0>        -0.1410
      6 C6          0.0021   -0.0041    0.0020 C.ar      1 <0>        -0.1056
      7 C7          3.7112   -0.7071   -0.0376 C.3       1 <0>        -0.0868
      8 C8          4.1714   -0.9633    1.3989 C.3       1 <0>         0.0781
      9 C9          4.3708    0.3738    2.1235 C.3       1 <0>        -0.1798
     10 C10         4.8462    0.0771    3.5472 C.3       1 <0>         0.0358
     11 N1          6.0526   -0.7268    3.5394 N.3       1 <0>        -0.3530
     12 C11         7.2394   -0.0198    3.0126 C.3       1 <0>         0.0028
     13 C12         8.2535   -1.1710    2.7987 C.3       1 <0>        -0.1426
     14 C13         7.3799   -2.4381    2.6816 C.3       1 <0>         0.0467
     15 H1          7.5580   -2.9323    1.7265 H         1 <0>         0.1168
     16 N2          5.9710   -1.9575    2.7589 N.3       1 <0>        -0.3100
     17 C14         5.5047   -1.7091    1.3867 C.3       1 <0>        -0.0316
     18 C15         7.6743   -3.3817    3.8191 C.2       1 <0>         0.5329
     19 O1          6.7977   -3.6790    4.6027 O.2       1 <0>        -0.4943
     20 N3          8.9118   -3.8952    3.9657 N.am      1 <0>        -0.7209
     21 C16         9.1980   -4.8124    5.0716 C.3       1 <0>         0.1331
     22 H2          8.3220   -5.4312    5.2664 H         1 <0>         0.1335
     23 C17        10.3817   -5.7072    4.6987 C.3       1 <0>        -0.1215
     24 C18         9.9930   -6.6025    3.5204 C.3       1 <0>        -0.1278
     25 C19        11.1767   -7.4973    3.1475 C.3       1 <0>         0.0913
     26 N4         10.8045   -8.3545    2.0194 N.pl3     1 <0>        -0.6964
     27 C20        11.7093   -9.2445    1.5090 C.cat     1 <0>         0.7425
     28 N5         11.3708  -10.0239    0.4833 N.pl3     1 <0>        -0.7936
     29 N6         12.9287   -9.3316    2.0377 N.pl3     1 <0>        -0.7915
     30 C21         9.5375   -4.0192    6.3071 C.2       1 <0>         0.4412
     31 O2          9.8072   -2.8405    6.2158 O.2       1 <0>        -0.4067
     32 C22         9.5417   -4.6747    7.6238 C.2       1 <0>         0.0373
     33 N7          9.2848   -5.9309    7.9228 N.2       1 <0>        -0.4389
     34 C23         9.3245   -6.3997    9.1720 C.ar      1 <0>         0.0535
     35 C24         9.0698   -7.7215    9.6218 C.ar      1 <0>        -0.0425
     36 C25         9.1533   -8.0351   10.9396 C.ar      1 <0>        -0.1144
     37 C26         9.4881   -7.0857   11.8987 C.ar      1 <0>        -0.0616
     38 C27         9.7443   -5.7869   11.5070 C.ar      1 <0>        -0.0763
     39 C28         9.6640   -5.4544   10.1750 C.ar      1 <0>        -0.1275
     40 S1          9.9046   -3.9714    9.2270 S.3       1 <0>         0.0806
     41 N8          3.1631   -1.7642    2.1058 N.4       1 <0>        -0.6295
     42 H3         -0.9591    1.9053    0.0259 H         1 <0>         0.1342
     43 H4          1.1563    3.1654    0.0076 H         1 <0>         0.1338
     44 H5          3.3051    1.9634   -0.0196 H         1 <0>         0.1278
     45 H6          1.2231   -1.7588   -0.0176 H         1 <0>         0.1225
     46 H7         -0.9258   -0.5567    0.0082 H         1 <0>         0.1334
     47 H8          3.5884   -1.6586   -0.5549 H         1 <0>         0.1010
     48 H9          4.4573   -0.1052   -0.5563 H         1 <0>         0.1173
     49 H10         5.1211    0.9672    1.6011 H         1 <0>         0.1124
     50 H11         3.4273    0.9188    2.1567 H         1 <0>         0.1107
     51 H12         5.0468    1.0176    4.0603 H         1 <0>         0.1163
     52 H13         4.0623   -0.4601    4.0811 H         1 <0>         0.0874
     53 H14         7.0084    0.4724    2.0679 H         1 <0>         0.0590
     54 H15         7.6170    0.6976    3.7412 H         1 <0>         0.1116
     55 H16         8.8202   -1.0134    1.8810 H         1 <0>         0.0934
     56 H17         8.9256   -1.2498    3.6532 H         1 <0>         0.0999
     57 H18         5.3790   -2.6616    0.8719 H         1 <0>         0.1144
     58 H19         6.2465   -1.1106    0.8578 H         1 <0>         0.0928
     59 H20         9.6129   -3.6574    3.3390 H         1 <0>         0.4056
     60 H21        11.2323   -5.0861    4.4179 H         1 <0>         0.0871
     61 H22        10.6514   -6.3279    5.5531 H         1 <0>         0.1040
     62 H23         9.1424   -7.2236    3.8012 H         1 <0>         0.0901
     63 H24         9.7233   -5.9818    2.6659 H         1 <0>         0.0837
     64 H25        12.0273   -6.8762    2.8668 H         1 <0>         0.0945
     65 H26        11.4464   -8.1179    4.0020 H         1 <0>         0.0963
     66 H27         9.9165   -8.2911    1.6343 H         1 <0>         0.4348
     67 H28        10.4828   -9.9604    0.0982 H         1 <0>         0.4407
     68 H29        13.1751   -8.7640    2.7847 H         1 <0>         0.4401
     69 H30        13.5703   -9.9627    1.6757 H         1 <0>         0.4424
     70 H31         8.8061   -8.4869    8.9069 H         1 <0>         0.1368
     71 H32         8.9539   -9.0496   11.2519 H         1 <0>         0.1423
     72 H33         9.5468   -7.3618   12.9411 H         1 <0>         0.1487
     73 H34        10.0052   -5.0383   12.2404 H         1 <0>         0.1428
     74 H35         3.0409   -2.6462    1.6313 H         1 <0>         0.4327
     75 H36         3.4695   -1.9313    3.0526 H         1 <0>         0.4411
     76 H37        12.0124  -10.6550    0.1213 H         1 <0>         0.4428
     77 H38         2.2862   -1.2653    2.1193 H         1 <0>         0.4325
@<TRIPOS>BOND
     1    1    6 ar
     2    1    2 ar
     3    1   42 1
     4    2    3 ar
     5    2   43 1
     6    3    4 ar
     7    3   44 1
     8    4    5 ar
     9    4    7 1
    10    5    6 ar
    11    5   45 1
    12    6   46 1
    13    7    8 1
    14    7   47 1
    15    7   48 1
    16    8   17 1
    17    8    9 1
    18    8   41 1
    19    9   10 1
    20    9   49 1
    21    9   50 1
    22   10   11 1
    23   10   51 1
    24   10   52 1
    25   11   16 1
    26   11   12 1
    27   12   13 1
    28   12   53 1
    29   12   54 1
    30   13   14 1
    31   13   55 1
    32   13   56 1
    33   14   15 1
    34   14   16 1
    35   14   18 1
    36   16   17 1
    37   17   57 1
    38   17   58 1
    39   18   19 2
    40   18   20 am
    41   20   21 1
    42   20   59 1
    43   21   22 1
    44   21   23 1
    45   21   30 1
    46   23   24 1
    47   23   60 1
    48   23   61 1
    49   24   25 1
    50   24   62 1
    51   24   63 1
    52   25   26 1
    53   25   64 1
    54   25   65 1
    55   26   27 1
    56   26   66 1
    57   27   28 2
    58   27   29 1
    59   28   67 1
    60   28   76 1
    61   29   68 1
    62   29   69 1
    63   30   31 2
    64   30   32 1
    65   32   40 1
    66   32   33 2
    67   33   34 1
    68   34   39 ar
    69   34   35 ar
    70   35   36 ar
    71   35   70 1
    72   36   37 ar
    73   36   71 1
    74   37   38 ar
    75   37   72 1
    76   38   39 ar
    77   38   73 1
    78   39   40 1
    79   41   74 1
    80   41   75 1
    81   41   77 1
@<TRIPOS>MOLECULE
CHEMBL227425
   50    52     0     0     0
SMALL
USER_CHARGES

@<TRIPOS>ATOM
      1 C1          0.0439    1.6374   -0.2829 C.ar      1 <0>         0.0222
      2 C2          1.0415    2.5399   -0.5067 C.ar      1 <0>        -0.1306
      3 C3          2.3614    2.0891   -0.6375 C.ar      1 <0>         0.0372
      4 C4          2.6384    0.7029   -0.5351 C.ar      1 <0>        -0.1430
      5 C5          1.5927   -0.1948   -0.3053 C.ar      1 <0>         0.0431
      6 C6          0.3178    0.2765   -0.1826 C.ar      1 <0>        -0.6520
      7 S1         -1.0014   -0.8550    0.1077 S.o2      1 <0>         2.6904
      8 O1         -0.4237   -2.0078    0.7049 O.2       1 <0>        -0.9666
      9 O2         -2.0418   -0.1145    0.7309 O.2       1 <0>        -0.9638
     10 N1         -1.5767   -1.3264   -1.3719 N.pl3     1 <0>        -0.9588
     11 C7         -0.9811   -2.4761   -2.0570 C.3       1 <0>         0.1386
     12 C8         -1.9880   -3.6276   -2.0906 C.3       1 <0>        -0.1078
     13 C9         -2.2542   -4.1386   -0.6596 C.3       1 <0>        -0.1351
     14 C10        -2.4030   -5.6714   -0.8251 C.3       1 <0>        -0.1231
     15 C11        -1.3393   -6.0040   -1.9008 C.3       1 <0>        -0.1226
     16 C12        -1.4063   -4.8136   -2.8798 C.3       1 <0>        -0.1157
     17 C13        -2.6814   -0.5936   -1.9956 C.3       1 <0>         0.0429
     18 C14        -2.1275    0.4405   -2.9416 C.2       1 <0>         0.4761
     19 O3         -0.9218    0.5548   -3.0818 O.co2     1 <0>        -0.6780
     20 O4         -2.8851    1.1628   -3.5667 O.co2     1 <0>        -0.6994
     21 C15         4.0265    0.2648   -0.6757 C.ar      1 <0>         0.4238
     22 N2          4.9678    1.1750   -0.8924 N.ar      1 <0>        -0.5226
     23 C16         4.6981    2.4686   -0.9865 C.ar      1 <0>         0.1285
     24 C17         3.4386    2.9687   -0.8692 C.ar      1 <0>        -0.1189
     25 Cl1         3.1596    4.6768   -1.0043 Cl        1 <0>        -0.0600
     26 N3          4.3475   -1.0532   -0.5856 N.2       1 <0>        -0.6317
     27 C18         4.2743   -1.8232   -1.6516 C.2       1 <0>         0.6851
     28 N4          3.9854   -1.2758   -2.8731 N.pl3     1 <0>        -0.8715
     29 N5          4.4870   -3.1712   -1.5384 N.pl3     1 <0>        -0.8328
     30 H1         -0.9734    1.9844   -0.1774 H         1 <0>         0.1375
     31 H2          0.8158    3.5933   -0.5829 H         1 <0>         0.1389
     32 H3          1.7917   -1.2533   -0.2258 H         1 <0>         0.1412
     33 H4         -0.7169   -2.1947   -3.0764 H         1 <0>         0.0763
     34 H5         -0.0848   -2.7926   -1.5236 H         1 <0>         0.0757
     35 H6         -2.9196   -3.2954   -2.5485 H         1 <0>         0.0769
     36 H7         -1.4118   -3.9053   -0.0083 H         1 <0>         0.0873
     37 H8         -3.1738   -3.7064   -0.2650 H         1 <0>         0.0599
     38 H9         -2.1800   -6.1845    0.1103 H         1 <0>         0.0626
     39 H10        -3.4022   -5.9266   -1.1782 H         1 <0>         0.0621
     40 H11        -0.3492   -6.0719   -1.4500 H         1 <0>         0.0643
     41 H12        -1.5913   -6.9330   -2.4121 H         1 <0>         0.0598
     42 H13        -2.0561   -5.0575   -3.7202 H         1 <0>         0.0629
     43 H14        -0.4067   -4.5688   -3.2389 H         1 <0>         0.0643
     44 H15        -3.3132   -1.2895   -2.5475 H         1 <0>         0.0803
     45 H16        -3.2721   -0.1005   -1.2236 H         1 <0>         0.0872
     46 H17         5.5127    3.1552   -1.1639 H         1 <0>         0.1564
     47 H18         3.9100   -0.3134   -2.9677 H         1 <0>         0.4163
     48 H19         3.8561   -1.8505   -3.6438 H         1 <0>         0.4014
     49 H20         4.6917   -3.5589   -0.6731 H         1 <0>         0.4239
     50 H21         4.4331   -3.7383   -2.3235 H         1 <0>         0.4105
@<TRIPOS>BOND
     1    1    6 ar
     2    1    2 ar
     3    1   30 1
     4    2    3 ar
     5    2   31 1
     6    3   24 ar
     7    3    4 ar
     8    4    5 ar
     9    4   21 ar
    10    5    6 ar
    11    5   32 1
    12    6    7 1
    13    7    8 2
    14    7    9 2
    15    7   10 1
    16   10   11 1
    17   10   17 1
    18   11   12 1
    19   11   33 1
    20   11   34 1
    21   12   16 1
    22   12   13 1
    23   12   35 1
    24   13   14 1
    25   13   36 1
    26   13   37 1
    27   14   15 1
    28   14   38 1
    29   14   39 1
    30   15   16 1
    31   15   40 1
    32   15   41 1
    33   16   42 1
    34   16   43 1
    35   17   18 1
    36   17   44 1
    37   17   45 1
    38   18   19 2
    39   18   20 1
    40   21   22 ar
    41   21   26 1
    42   22   23 ar
    43   23   24 ar
    44   23   46 1
    45   24   25 1
    46   26   27 2
    47   27   28 1
    48   27   29 1
    49   28   47 1
    50   28   48 1
    51   29   49 1
    52   29   50 1
@<TRIPOS>MOLECULE
CHEMBL388780
   44    46     0     0     0
SMALL
USER_CHARGES

@<TRIPOS>ATOM
      1 C1         -0.7760    0.5594    1.3171 C.ar      1 <0>         0.0565
      2 C2          0.4955    0.7828    1.7568 C.ar      1 <0>        -0.1551
      3 C3          1.4382   -0.2514    1.6921 C.ar      1 <0>         0.0342
      4 C4          1.0553   -1.5126    1.1709 C.ar      1 <0>        -0.1527
      5 C5         -0.2558   -1.7077    0.7290 C.ar      1 <0>         0.0299
      6 C6         -1.1502   -0.6797    0.8055 C.ar      1 <0>        -0.6519
      7 S1         -2.8039   -0.9251    0.2490 S.o2      1 <0>         2.6868
      8 O1         -3.1834   -2.2295    0.6660 O.2       1 <0>        -0.9854
      9 O2         -3.5340    0.2360    0.6204 O.2       1 <0>        -0.9107
     10 N1         -2.7647   -0.9502   -1.4064 N.pl3     1 <0>        -0.9739
     11 C7         -2.5719   -2.2133   -2.1316 C.3       1 <0>         0.1194
     12 C8         -1.3949   -2.0520   -3.0987 C.3       1 <0>        -0.1321
     13 C9         -1.6433   -0.8409   -4.0007 C.3       1 <0>        -0.1149
     14 C10        -1.7416    0.4236   -3.1443 C.3       1 <0>        -0.1142
     15 C11        -2.9282    0.2895   -2.1779 C.3       1 <0>         0.0828
     16 H1         -3.8598    0.2485   -2.7423 H         1 <0>         0.0690
     17 C12        -2.9540    1.4687   -1.2398 C.2       1 <0>         0.4999
     18 O3         -1.9863    1.7115   -0.5391 O.co2     1 <0>        -0.6857
     19 O4         -3.9427    2.1798   -1.1815 O.co2     1 <0>        -0.6653
     20 C13         2.0626   -2.5713    1.1174 C.ar      1 <0>         0.4208
     21 N2          3.2885   -2.3133    1.5557 N.ar      1 <0>        -0.5268
     22 C14         3.6361   -1.1307    2.0411 C.ar      1 <0>         0.1253
     23 C15         2.7682   -0.0872    2.1299 C.ar      1 <0>        -0.1197
     24 Cl1         3.2943    1.4354    2.7770 Cl        1 <0>        -0.0618
     25 N3          1.7484   -3.7998    0.6272 N.2       1 <0>        -0.6286
     26 C16         1.3981   -4.7671    1.4495 C.2       1 <0>         0.6855
     27 N4          1.2440   -4.5080    2.7853 N.pl3     1 <0>        -0.8744
     28 N5          1.1882   -6.0320    0.9688 N.pl3     1 <0>        -0.8332
     29 H2         -1.5047    1.3547    1.3708 H         1 <0>         0.1726
     30 H3          0.7734    1.7490    2.1512 H         1 <0>         0.1370
     31 H4         -0.5588   -2.6642    0.3296 H         1 <0>         0.1341
     32 H5         -2.3554   -3.0124   -1.4226 H         1 <0>         0.0802
     33 H6         -3.4751   -2.4543   -2.6923 H         1 <0>         0.0684
     34 H7         -0.4763   -1.9010   -2.5317 H         1 <0>         0.0656
     35 H8         -1.3016   -2.9488   -3.7111 H         1 <0>         0.0673
     36 H9         -0.8187   -0.7384   -4.7063 H         1 <0>         0.0568
     37 H10        -2.5748   -0.9815   -4.5490 H         1 <0>         0.0585
     38 H11        -0.8198    0.5513   -2.5769 H         1 <0>         0.0706
     39 H12        -1.8952    1.2888   -3.7893 H         1 <0>         0.0637
     40 H13         4.6515   -0.9891    2.3806 H         1 <0>         0.1539
     41 H14         1.3179   -3.5986    3.1146 H         1 <0>         0.4146
     42 H15         1.0608   -5.2338    3.4021 H         1 <0>         0.3998
     43 H16         1.2974   -6.2156    0.0226 H         1 <0>         0.4239
     44 H17         0.9302   -6.7444    1.5744 H         1 <0>         0.4096
@<TRIPOS>BOND
     1    1    6 ar
     2    1    2 ar
     3    1   29 1
     4    2    3 ar
     5    2   30 1
     6    3   23 ar
     7    3    4 ar
     8    4    5 ar
     9    4   20 ar
    10    5    6 ar
    11    5   31 1
    12    6    7 1
    13    7    8 2
    14    7    9 2
    15    7   10 1
    16   10   15 1
    17   10   11 1
    18   11   12 1
    19   11   32 1
    20   11   33 1
    21   12   13 1
    22   12   34 1
    23   12   35 1
    24   13   14 1
    25   13   36 1
    26   13   37 1
    27   14   15 1
    28   14   38 1
    29   14   39 1
    30   15   16 1
    31   15   17 1
    32   17   18 2
    33   17   19 1
    34   20   21 ar
    35   20   25 1
    36   21   22 ar
    37   22   23 ar
    38   22   40 1
    39   23   24 1
    40   25   26 2
    41   26   27 1
    42   26   28 1
    43   27   41 1
    44   27   42 1
    45   28   43 1
    46   28   44 1
@<TRIPOS>MOLECULE
CHEMBL108447
   53    56     0     0     0
SMALL
USER_CHARGES

@<TRIPOS>ATOM
      1 C1         -2.2934    0.3565    0.1317 C.3       1 <0>        -0.1560
      2 C2         -1.5857   -0.9936   -0.0000 C.3       1 <0>        -0.1174
      3 C3         -0.5044   -0.8995   -1.0784 C.3       1 <0>        -0.0447
      4 C4         -1.1611   -0.6395   -2.4343 C.3       1 <0>         0.0566
      5 N1         -0.1383   -0.7797   -3.4831 N.3       1 <0>        -0.6857
      6 C5          0.2333   -2.1890   -3.6440 C.3       1 <0>         0.0939
      7 C6          0.6178   -2.7879   -2.3162 C.ar      1 <0>        -0.0834
      8 C7          0.2727   -2.1903   -1.1217 C.ar      1 <0>        -0.0431
      9 C8          0.6427   -2.7778    0.0769 C.ar      1 <0>        -0.1394
     10 C9          1.3618   -3.9642    0.0822 C.ar      1 <0>         0.1326
     11 C10         1.7103   -4.5623   -1.1217 C.ar      1 <0>        -0.1175
     12 C11         1.3381   -3.9738   -2.3122 C.ar      1 <0>        -0.0975
     13 N2          1.7341   -4.5547    1.2939 N.am      1 <0>        -0.6616
     14 C12         1.7649   -5.8973    1.4078 C.2       1 <0>         0.5519
     15 O1          1.5516   -6.5949    0.4354 O.2       1 <0>        -0.5034
     16 C13         2.0580   -6.5215    2.7153 C.ar      1 <0>        -0.0957
     17 C14         2.2981   -5.7094    3.8378 C.ar      1 <0>        -0.0824
     18 C15         2.5689   -6.2593    5.0490 C.ar      1 <0>        -0.0930
     19 C16         2.6121   -7.6590    5.1935 C.ar      1 <0>        -0.0496
     20 C17         2.8897   -8.2467    6.4372 C.ar      1 <0>        -0.0177
     21 C18         2.9247   -9.6259    6.5470 C.ar      1 <0>        -0.1426
     22 C19         2.6849  -10.4381    5.4252 C.ar      1 <0>        -0.0973
     23 C20         2.4150   -9.8886    4.2134 C.ar      1 <0>        -0.0670
     24 C21         2.3716   -8.4890    4.0687 C.ar      1 <0>        -0.0222
     25 C22         2.0882   -7.9016    2.8262 C.ar      1 <0>        -0.0417
     26 C23         3.2175  -10.2507    7.8562 C.cat     1 <0>         0.5994
     27 N3          3.2526  -11.5770    7.9679 N.pl3     1 <0>        -0.7587
     28 N4          3.4459   -9.4865    8.9223 N.pl3     1 <0>        -0.7629
     29 H1         -1.5683    1.1212    0.4101 H         1 <0>         0.0572
     30 H2         -2.7524    0.6206   -0.8210 H         1 <0>         0.0576
     31 H3         -3.0638    0.2895    0.8999 H         1 <0>         0.0562
     32 H4         -1.1268   -1.2577    0.9527 H         1 <0>         0.0656
     33 H5         -2.3108   -1.7583   -0.2784 H         1 <0>         0.0634
     34 H6          0.1718   -0.0779   -0.8420 H         1 <0>         0.0924
     35 H7         -1.9577   -1.3647   -2.6004 H         1 <0>         0.0384
     36 H8         -1.5709    0.3702   -2.4552 H         1 <0>         0.0837
     37 H9         -0.4595   -0.3885   -4.3560 H         1 <0>         0.3507
     38 H10        -0.6121   -2.7397   -4.0564 H         1 <0>         0.0467
     39 H11         1.0769   -2.2630   -4.3304 H         1 <0>         0.0902
     40 H12         0.3706   -2.3099    1.0115 H         1 <0>         0.1275
     41 H13         2.2714   -5.4851   -1.1257 H         1 <0>         0.1387
     42 H14         1.6090   -4.4397   -3.2482 H         1 <0>         0.1285
     43 H15         1.9702   -3.9980    2.0524 H         1 <0>         0.4099
     44 H16         2.2671   -4.6347    3.7350 H         1 <0>         0.1398
     45 H17         2.7516   -5.6227    5.9021 H         1 <0>         0.1471
     46 H18         3.0750   -7.6273    7.3023 H         1 <0>         0.1449
     47 H19         2.7161  -11.5127    5.5284 H         1 <0>         0.1384
     48 H20         2.2335  -10.5254    3.3602 H         1 <0>         0.1542
     49 H21         1.8991   -8.5211    1.9620 H         1 <0>         0.1577
     50 H22         3.0862  -12.1337    7.1912 H         1 <0>         0.4454
     51 H23         3.4204   -8.5203    8.8408 H         1 <0>         0.4434
     52 H24         3.6378   -9.8960    9.7804 H         1 <0>         0.4345
     53 H25         3.4445  -11.9865    8.8260 H         1 <0>         0.4340
@<TRIPOS>BOND
     1    1    2 1
     2    1   29 1
     3    1   30 1
     4    1   31 1
     5    2    3 1
     6    2   32 1
     7    2   33 1
     8    3    8 1
     9    3    4 1
    10    3   34 1
    11    4    5 1
    12    4   35 1
    13    4   36 1
    14    5    6 1
    15    5   37 1
    16    6    7 1
    17    6   38 1
    18    6   39 1
    19    7   12 ar
    20    7    8 ar
    21    8    9 ar
    22    9   10 ar
    23    9   40 1
    24   10   11 ar
    25   10   13 1
    26   11   12 ar
    27   11   41 1
    28   12   42 1
    29   13   14 am
    30   13   43 1
    31   14   15 2
    32   14   16 1
    33   16   25 ar
    34   16   17 ar
    35   17   18 ar
    36   17   44 1
    37   18   19 ar
    38   18   45 1
    39   19   24 ar
    40   19   20 ar
    41   20   21 ar
    42   20   46 1
    43   21   22 ar
    44   21   26 1
    45   22   23 ar
    46   22   47 1
    47   23   24 ar
    48   23   48 1
    49   24   25 ar
    50   25   49 1
    51   26   27 2
    52   26   28 1
    53   27   50 1
    54   27   53 1
    55   28   51 1
    56   28   52 1
@<TRIPOS>MOLECULE
CHEMBL108447__1
   54    57     0     0     0
SMALL
USER_CHARGES

@<TRIPOS>ATOM
      1 C1          2.0113   -1.3446   -1.2890 C.3       1 <0>        -0.1654
      2 C2          0.7837   -0.8574   -2.0614 C.3       1 <0>        -0.1167
      3 C3         -0.4834   -1.2070   -1.2783 C.3       1 <0>        -0.0684
      4 C4         -0.6259   -2.7272   -1.1942 C.3       1 <0>        -0.0052
      5 N1         -1.9486   -3.0440   -0.6343 N.4       1 <0>        -0.5044
      6 C5         -2.9736   -2.7595   -1.6427 C.3       1 <0>         0.0478
      7 C6         -2.8446   -1.3454   -2.1450 C.ar      1 <0>        -0.1494
      8 C7         -1.6828   -0.6198   -1.9779 C.ar      1 <0>        -0.0609
      9 C8         -1.6021    0.6767   -2.4567 C.ar      1 <0>        -0.1327
     10 C9         -2.6866    1.2518   -3.1036 C.ar      1 <0>         0.1757
     11 C10        -3.8555    0.5205   -3.2689 C.ar      1 <0>        -0.1109
     12 C11        -3.9299   -0.7711   -2.7907 C.ar      1 <0>        -0.0675
     13 N2         -2.6028    2.5613   -3.5870 N.am      1 <0>        -0.6702
     14 C12        -3.2645    2.9093   -4.7084 C.2       1 <0>         0.5603
     15 O1         -3.8589    2.0651   -5.3501 O.2       1 <0>        -0.4976
     16 C13        -3.2674    4.3175   -5.1580 C.ar      1 <0>        -0.1090
     17 C14        -2.5732    5.2884   -4.4147 C.ar      1 <0>        -0.0857
     18 C15        -2.5609    6.5877   -4.8077 C.ar      1 <0>        -0.0895
     19 C16        -3.2485    6.9780   -5.9725 C.ar      1 <0>        -0.0453
     20 C17        -3.2473    8.3160   -6.3956 C.ar      1 <0>        -0.0214
     21 C18        -3.9326    8.6681   -7.5454 C.ar      1 <0>        -0.1347
     22 C19        -4.6268    7.6980   -8.2886 C.ar      1 <0>        -0.0935
     23 C20        -4.6402    6.3985   -7.8954 C.ar      1 <0>        -0.0673
     24 C21        -3.9526    6.0079   -6.7308 C.ar      1 <0>        -0.0249
     25 C22        -3.9491    4.6690   -6.3111 C.ar      1 <0>        -0.0333
     26 C23        -3.9349   10.0778   -7.9957 C.cat     1 <0>         0.5976
     27 N3         -4.5924   10.4226   -9.1009 N.pl3     1 <0>        -0.7560
     28 N4         -3.2795   11.0014   -7.2955 N.pl3     1 <0>        -0.7609
     29 H1          2.9161   -1.0078   -1.7948 H         1 <0>         0.0708
     30 H2          1.9884   -0.9395   -0.2773 H         1 <0>         0.0629
     31 H3          2.0039   -2.4337   -1.2445 H         1 <0>         0.0579
     32 H4          0.8428    0.2230   -2.1935 H         1 <0>         0.0835
     33 H5          0.7528   -1.3416   -3.0374 H         1 <0>         0.0775
     34 H6         -0.4129   -0.7943   -0.2720 H         1 <0>         0.1115
     35 H7         -0.5376   -3.1587   -2.1912 H         1 <0>         0.1365
     36 H8          0.1520   -3.1324   -0.5470 H         1 <0>         0.1426
     37 H9         -1.9839   -4.0205   -0.3830 H         1 <0>         0.4381
     38 H10        -2.8570   -3.4497   -2.4782 H         1 <0>         0.1407
     39 H11        -3.9605   -2.8952   -1.2003 H         1 <0>         0.1428
     40 H12        -0.6916    1.2428   -2.3260 H         1 <0>         0.1397
     41 H13        -4.7042    0.9619   -3.7702 H         1 <0>         0.1472
     42 H14        -4.8391   -1.3394   -2.9201 H         1 <0>         0.1412
     43 H15        -2.0685    3.2192   -3.1153 H         1 <0>         0.4163
     44 H16        -2.0435    4.9970   -3.5197 H         1 <0>         0.1373
     45 H17        -2.0236    7.3224   -4.2264 H         1 <0>         0.1486
     46 H18        -2.7159    9.0656   -5.8281 H         1 <0>         0.1468
     47 H19        -5.1564    7.9899   -9.1834 H         1 <0>         0.1412
     48 H20        -5.1786    5.6642   -8.4763 H         1 <0>         0.1555
     49 H21        -4.4774    3.9188   -6.8808 H         1 <0>         0.1579
     50 H22        -5.0699    9.7497   -9.6110 H         1 <0>         0.4457
     51 H23        -2.8005   10.7502   -6.4903 H         1 <0>         0.4433
     52 H24        -3.2810   11.9254   -7.5907 H         1 <0>         0.4363
     53 H25        -4.5938   11.3466   -9.3961 H         1 <0>         0.4359
     54 H26        -2.1135   -2.4771    0.1840 H         1 <0>         0.4317
@<TRIPOS>BOND
     1    1    2 1
     2    1   29 1
     3    1   30 1
     4    1   31 1
     5    2    3 1
     6    2   32 1
     7    2   33 1
     8    3    8 1
     9    3    4 1
    10    3   34 1
    11    4    5 1
    12    4   35 1
    13    4   36 1
    14    5    6 1
    15    5   37 1
    16    5   54 1
    17    6    7 1
    18    6   38 1
    19    6   39 1
    20    7   12 ar
    21    7    8 ar
    22    8    9 ar
    23    9   10 ar
    24    9   40 1
    25   10   11 ar
    26   10   13 1
    27   11   12 ar
    28   11   41 1
    29   12   42 1
    30   13   14 am
    31   13   43 1
    32   14   15 2
    33   14   16 1
    34   16   25 ar
    35   16   17 ar
    36   17   18 ar
    37   17   44 1
    38   18   19 ar
    39   18   45 1
    40   19   24 ar
    41   19   20 ar
    42   20   21 ar
    43   20   46 1
    44   21   22 ar
    45   21   26 1
    46   22   23 ar
    47   22   47 1
    48   23   24 ar
    49   23   48 1
    50   24   25 ar
    51   25   49 1
    52   26   27 2
    53   26   28 1
    54   27   50 1
    55   27   53 1
    56   28   51 1
    57   28   52 1
@<TRIPOS>MOLECULE
CHEMBL108447__2
   53    56     0     0     0
SMALL
USER_CHARGES

@<TRIPOS>ATOM
      1 C1         -0.6136    1.4947   -2.4776 C.3       1 <0>        -0.1569
      2 C2         -0.5070    0.1321   -1.7900 C.3       1 <0>        -0.1125
      3 C3          0.5254   -0.7286   -2.5209 C.3       1 <0>        -0.0866
      4 C4          1.9066   -0.0864   -2.3887 C.3       1 <0>         0.0584
      5 N1          2.9126   -1.0341   -2.8940 N.3       1 <0>        -0.6781
      6 C5          3.0625   -2.1582   -1.9644 C.3       1 <0>         0.0928
      7 C6          1.7218   -2.7759   -1.6635 C.ar      1 <0>        -0.1221
      8 C7          0.5407   -2.1106   -1.9193 C.ar      1 <0>        -0.0548
      9 C8         -0.6703   -2.7141   -1.6227 C.ar      1 <0>        -0.1368
     10 C9         -0.7017   -3.9867   -1.0714 C.ar      1 <0>         0.1336
     11 C10         0.4887   -4.6554   -0.8174 C.ar      1 <0>        -0.1171
     12 C11         1.6917   -4.0494   -1.1133 C.ar      1 <0>        -0.0943
     13 N2         -1.9258   -4.5930   -0.7725 N.am      1 <0>        -0.6624
     14 C12        -2.0732   -5.9242   -0.9234 C.2       1 <0>         0.5522
     15 O1         -1.1196   -6.6095   -1.2378 O.2       1 <0>        -0.5030
     16 C13        -3.3943   -6.5508   -0.7067 C.ar      1 <0>        -0.0964
     17 C14        -4.4949   -5.7521   -0.3489 C.ar      1 <0>        -0.0826
     18 C15        -5.7181   -6.3044   -0.1451 C.ar      1 <0>        -0.0928
     19 C16        -5.8973   -7.6931   -0.2912 C.ar      1 <0>        -0.0493
     20 C17        -7.1539   -8.2830   -0.0854 C.ar      1 <0>        -0.0179
     21 C18        -7.2979   -9.6511   -0.2371 C.ar      1 <0>        -0.1421
     22 C19        -6.1981  -10.4499   -0.5946 C.ar      1 <0>        -0.0971
     23 C20        -4.9743   -9.8981   -0.7977 C.ar      1 <0>        -0.0668
     24 C21        -4.7949   -8.5095   -0.6517 C.ar      1 <0>        -0.0223
     25 C22        -3.5396   -7.9191   -0.8633 C.ar      1 <0>        -0.0411
     26 C23        -8.6208  -10.2782   -0.0208 C.cat     1 <0>         0.5994
     27 N3         -8.7655  -11.5938   -0.1653 N.pl3     1 <0>        -0.7585
     28 N4         -9.6662   -9.5267    0.3184 N.pl3     1 <0>        -0.7629
     29 H1          0.3565    1.9912   -2.4526 H         1 <0>         0.0604
     30 H2         -0.9241    1.3558   -3.5132 H         1 <0>         0.0552
     31 H3         -1.3491    2.1079   -1.9569 H         1 <0>         0.0570
     32 H4         -0.1965    0.2710   -0.7544 H         1 <0>         0.0658
     33 H5         -1.4770   -0.3644   -1.8150 H         1 <0>         0.0623
     34 H6          0.2588   -0.7960   -3.5756 H         1 <0>         0.0851
     35 H7          1.9412    0.8317   -2.9753 H         1 <0>         0.0865
     36 H8          2.1077    0.1373   -1.3411 H         1 <0>         0.0779
     37 H9          2.6714   -1.3590   -3.8183 H         1 <0>         0.3445
     38 H10         3.7136   -2.9101   -2.4103 H         1 <0>         0.0887
     39 H11         3.5111   -1.8016   -1.0373 H         1 <0>         0.0893
     40 H12        -1.5943   -2.1913   -1.8213 H         1 <0>         0.1270
     41 H13         0.4724   -5.6468   -0.3892 H         1 <0>         0.1389
     42 H14         2.6171   -4.5700   -0.9157 H         1 <0>         0.1297
     43 H15        -2.6689   -4.0555   -0.4565 H         1 <0>         0.4100
     44 H16        -4.3654   -4.6860   -0.2345 H         1 <0>         0.1393
     45 H17        -6.5540   -5.6783    0.1297 H         1 <0>         0.1472
     46 H18        -8.0022   -7.6739    0.1898 H         1 <0>         0.1450
     47 H19        -6.3280  -11.5159   -0.7088 H         1 <0>         0.1387
     48 H20        -4.1383  -10.5246   -1.0713 H         1 <0>         0.1543
     49 H21        -2.6921   -8.5278   -1.1422 H         1 <0>         0.1578
     50 H22        -8.0039  -12.1412   -0.4124 H         1 <0>         0.4454
     51 H23        -9.5608   -8.5682    0.4237 H         1 <0>         0.4434
     52 H24       -10.5333   -9.9377    0.4602 H         1 <0>         0.4346
     53 H25        -9.6326  -12.0048   -0.0235 H         1 <0>         0.4341
@<TRIPOS>BOND
     1    1    2 1
     2    1   29 1
     3    1   30 1
     4    1   31 1
     5    2    3 1
     6    2   32 1
     7    2   33 1
     8    3    8 1
     9    3    4 1
    10    3   34 1
    11    4    5 1
    12    4   35 1
    13    4   36 1
    14    5    6 1
    15    5   37 1
    16    6    7 1
    17    6   38 1
    18    6   39 1
    19    7   12 ar
    20    7    8 ar
    21    8    9 ar
    22    9   10 ar
    23    9   40 1
    24   10   11 ar
    25   10   13 1
    26   11   12 ar
    27   11   41 1
    28   12   42 1
    29   13   14 am
    30   13   43 1
    31   14   15 2
    32   14   16 1
    33   16   25 ar
    34   16   17 ar
    35   17   18 ar
    36   17   44 1
    37   18   19 ar
    38   18   45 1
    39   19   24 ar
    40   19   20 ar
    41   20   21 ar
    42   20   46 1
    43   21   22 ar
    44   21   26 1
    45   22   23 ar
    46   22   47 1
    47   23   24 ar
    48   23   48 1
    49   24   25 ar
    50   25   49 1
    51   26   27 2
    52   26   28 1
    53   27   50 1
    54   27   53 1
    55   28   51 1
    56   28   52 1
@<TRIPOS>MOLECULE
CHEMBL108447__3
   54    57     0     0     0
SMALL
USER_CHARGES

@<TRIPOS>ATOM
      1 C1         -2.1446    0.5034   -2.6270 C.3       1 <0>        -0.1657
      2 C2         -1.9618    0.6914   -1.1196 C.3       1 <0>        -0.1163
      3 C3         -3.0664   -0.0602   -0.3742 C.3       1 <0>        -0.0690
      4 C4         -2.9081   -1.5626   -0.6111 C.3       1 <0>        -0.0048
      5 N1         -3.8350   -2.2780    0.2793 N.4       1 <0>        -0.5047
      6 C5         -3.3344   -2.1950    1.6544 C.3       1 <0>         0.0479
      7 C6         -3.0953   -0.7602    2.0454 C.ar      1 <0>        -0.1493
      8 C7         -2.9679    0.2372    1.1004 C.ar      1 <0>        -0.0607
      9 C8         -2.7454    1.5441    1.4997 C.ar      1 <0>        -0.1328
     10 C9         -2.6515    1.8567    2.8483 C.ar      1 <0>         0.1758
     11 C10        -2.7821    0.8516    3.7978 C.ar      1 <0>        -0.1108
     12 C11        -3.0027   -0.4487    3.3941 C.ar      1 <0>        -0.0675
     13 N2         -2.4262    3.1772    3.2495 N.am      1 <0>        -0.6701
     14 C12        -2.9622    3.6331    4.3989 C.2       1 <0>         0.5605
     15 O1         -3.7168    2.9275    5.0396 O.2       1 <0>        -0.4982
     16 C13        -2.6325    4.9912    4.8806 C.ar      1 <0>        -0.1091
     17 C14        -1.7635    5.8049    4.1322 C.ar      1 <0>        -0.0857
     18 C15        -1.4463    7.0556    4.5537 C.ar      1 <0>        -0.0895
     19 C16        -1.9887    7.5535    5.7536 C.ar      1 <0>        -0.0452
     20 C17        -1.6733    8.8439    6.2060 C.ar      1 <0>        -0.0213
     21 C18        -2.2231    9.3048    7.3897 C.ar      1 <0>        -0.1348
     22 C19        -3.0916    8.4918    8.1381 C.ar      1 <0>        -0.0935
     23 C20        -3.4085    7.2404    7.7174 C.ar      1 <0>        -0.0673
     24 C21        -2.8664    6.7424    6.5176 C.ar      1 <0>        -0.0249
     25 C22        -3.1864    5.4542    6.0624 C.ar      1 <0>        -0.0334
     26 C23        -1.8934   10.6647    7.8714 C.cat     1 <0>         0.5977
     27 N3         -2.4192   11.1135    9.0092 N.pl3     1 <0>        -0.7560
     28 N4         -1.0710   11.4393    7.1669 N.pl3     1 <0>        -0.7609
     29 H1         -1.4204    1.1191   -3.1604 H         1 <0>         0.0709
     30 H2         -1.9897   -0.5445   -2.8839 H         1 <0>         0.0579
     31 H3         -3.1539    0.8017   -2.9105 H         1 <0>         0.0628
     32 H4         -0.9897    0.2997   -0.8199 H         1 <0>         0.0779
     33 H5         -2.0165    1.7525   -0.8765 H         1 <0>         0.0835
     34 H6         -4.0389    0.2636   -0.7450 H         1 <0>         0.1112
     35 H7         -3.1443   -1.7963   -1.6492 H         1 <0>         0.1423
     36 H8         -1.8837   -1.8621   -0.3898 H         1 <0>         0.1366
     37 H9         -4.7490   -1.8539    0.2265 H         1 <0>         0.4320
     38 H10        -4.0675   -2.6345    2.3308 H         1 <0>         0.1426
     39 H11        -2.3987   -2.7489    1.7303 H         1 <0>         0.1410
     40 H12        -2.6441    2.3232    0.7586 H         1 <0>         0.1397
     41 H13        -2.7115    1.0876    4.8493 H         1 <0>         0.1472
     42 H14        -3.1043   -1.2298    4.1331 H         1 <0>         0.1412
     43 H15        -1.8840    3.7650    2.7004 H         1 <0>         0.4164
     44 H16        -1.3431    5.4300    3.2108 H         1 <0>         0.1374
     45 H17        -0.7771    7.6689    3.9685 H         1 <0>         0.1486
     46 H18        -1.0063    9.4727    5.6350 H         1 <0>         0.1468
     47 H19        -3.5118    8.8670    9.0595 H         1 <0>         0.1411
     48 H20        -4.0767    6.6269    8.3035 H         1 <0>         0.1554
     49 H21        -3.8565    4.8269    6.6316 H         1 <0>         0.1578
     50 H22        -3.0184   10.5492    9.5225 H         1 <0>         0.4457
     51 H23        -0.6879   11.1123    6.3379 H         1 <0>         0.4433
     52 H24        -0.8549   12.3307    7.4826 H         1 <0>         0.4363
     53 H25        -2.2031   12.0049    9.3250 H         1 <0>         0.4359
     54 H26        -3.8934   -3.2455   -0.0009 H         1 <0>         0.4381
@<TRIPOS>BOND
     1    1    2 1
     2    1   29 1
     3    1   30 1
     4    1   31 1
     5    2    3 1
     6    2   32 1
     7    2   33 1
     8    3    8 1
     9    3    4 1
    10    3   34 1
    11    4    5 1
    12    4   35 1
    13    4   36 1
    14    5    6 1
    15    5   37 1
    16    5   54 1
    17    6    7 1
    18    6   38 1
    19    6   39 1
    20    7   12 ar
    21    7    8 ar
    22    8    9 ar
    23    9   10 ar
    24    9   40 1
    25   10   11 ar
    26   10   13 1
    27   11   12 ar
    28   11   41 1
    29   12   42 1
    30   13   14 am
    31   13   43 1
    32   14   15 2
    33   14   16 1
    34   16   25 ar
    35   16   17 ar
    36   17   18 ar
    37   17   44 1
    38   18   19 ar
    39   18   45 1
    40   19   24 ar
    41   19   20 ar
    42   20   21 ar
    43   20   46 1
    44   21   22 ar
    45   21   26 1
    46   22   23 ar
    47   22   47 1
    48   23   24 ar
    49   23   48 1
    50   24   25 ar
    51   25   49 1
    52   26   27 2
    53   26   28 1
    54   27   50 1
    55   27   53 1
    56   28   51 1
    57   28   52 1
@<TRIPOS>MOLECULE
CHEMBL253825
   64    66     0     0     0
SMALL
USER_CHARGES

@<TRIPOS>ATOM
      1 C1          0.2511    1.3141   -0.6970 C.3       1 <0>        -0.1489
      2 C2          0.1346   -0.1817   -0.3970 C.3       1 <0>         0.0567
      3 O1         -1.2432   -0.5332   -0.2552 O.3       1 <0>        -0.3198
      4 C3         -1.5235   -1.8372    0.0158 C.ar      1 <0>         0.0145
      5 C4         -1.7237   -2.7381   -1.0275 C.ar      1 <0>         0.1863
      6 C5         -2.0087   -4.0665   -0.7489 C.ar      1 <0>        -0.1887
      7 C6         -2.0938   -4.4950    0.5687 C.ar      1 <0>         0.2516
      8 C7         -1.8942   -3.5944    1.6065 C.ar      1 <0>        -0.1946
      9 C8         -1.6041   -2.2703    1.3297 C.ar      1 <0>         0.0175
     10 Cl1        -1.3481   -1.1486    2.6297 Cl        1 <0>        -0.0470
     11 N1         -2.3812   -5.8349    0.8511 N.pl3     1 <0>        -0.6178
     12 C9         -2.6036   -6.2773    2.2344 C.3       1 <0>         0.1165
     13 C10        -3.9474   -7.0091    2.3081 C.3       1 <0>        -0.1372
     14 C11        -3.9657   -8.1391    1.2762 C.3       1 <0>        -0.1208
     15 C12        -3.8118   -7.5518   -0.1287 C.3       1 <0>        -0.1373
     16 C13        -2.4725   -6.8250   -0.2305 C.3       1 <0>         0.1182
     17 N2         -1.6377   -2.3031   -2.3559 N.am      1 <0>        -0.6576
     18 C14        -1.1425   -3.1240   -3.3031 C.2       1 <0>         0.5565
     19 O2         -0.8446   -4.2686   -3.0205 O.2       1 <0>        -0.5048
     20 C15        -0.9618   -2.6339   -4.6833 C.ar      1 <0>        -0.1135
     21 C16        -1.2981   -1.3172   -5.0089 C.ar      1 <0>        -0.0787
     22 C17        -1.1281   -0.8637   -6.2979 C.ar      1 <0>        -0.0991
     23 C18        -0.6230   -1.7138   -7.2747 C.ar      1 <0>         0.1023
     24 C19        -0.2876   -3.0243   -6.9551 C.ar      1 <0>        -0.0913
     25 C20        -0.4484   -3.4835   -5.6669 C.ar      1 <0>        -0.0484
     26 C21         0.2591   -3.9418   -8.0183 C.3       1 <0>        -0.1185
     27 O3         -0.4573   -1.2632   -8.5441 O.3       1 <0>        -0.3376
     28 C22         0.8050   -0.6746   -8.8640 C.3       1 <0>         0.0233
     29 C23         0.8040   -0.2297  -10.3279 C.3       1 <0>         0.0024
     30 N3         -0.1829    0.8425  -10.5131 N.4       1 <0>        -0.6385
     31 C24        -1.4905    0.5560   -6.6501 C.3       1 <0>        -0.1150
     32 H1          1.3021    1.5822   -0.8051 H         1 <0>         0.0741
     33 H2         -0.2789    1.5415   -1.6219 H         1 <0>         0.0600
     34 H3         -0.1869    1.8841    0.1223 H         1 <0>         0.0686
     35 H4          0.5726   -0.7518   -1.2163 H         1 <0>         0.0458
     36 H5          0.6647   -0.4091    0.5279 H         1 <0>         0.0562
     37 H6         -2.1646   -4.7667   -1.5562 H         1 <0>         0.1528
     38 H7         -1.9610   -3.9290    2.6311 H         1 <0>         0.1416
     39 H8         -1.8028   -6.9528    2.5352 H         1 <0>         0.0677
     40 H9         -2.6222   -5.4116    2.8965 H         1 <0>         0.0848
     41 H10        -4.0805   -7.4259    3.3064 H         1 <0>         0.0771
     42 H11        -4.7551   -6.3088    2.0951 H         1 <0>         0.0676
     43 H12        -3.1427   -8.8256    1.4749 H         1 <0>         0.0651
     44 H13        -4.9113   -8.6770    1.3434 H         1 <0>         0.0670
     45 H14        -3.8484   -8.3549   -0.8647 H         1 <0>         0.0755
     46 H15        -4.6208   -6.8464   -0.3187 H         1 <0>         0.0662
     47 H16        -2.4046   -6.3206   -1.1944 H         1 <0>         0.0855
     48 H17        -1.6607   -7.5462   -0.1352 H         1 <0>         0.0663
     49 H18        -1.9346   -1.4109   -2.5942 H         1 <0>         0.4151
     50 H19        -1.6913   -0.6563   -4.2506 H         1 <0>         0.1366
     51 H20        -0.1828   -4.5003   -5.4182 H         1 <0>         0.1488
     52 H21         1.3459   -3.8621   -8.0432 H         1 <0>         0.0748
     53 H22        -0.0248   -4.9696   -7.7924 H         1 <0>         0.0795
     54 H23        -0.1483   -3.6572   -8.9884 H         1 <0>         0.0741
     55 H24         0.9762    0.1893   -8.2218 H         1 <0>         0.0821
     56 H25         1.5973   -1.4065   -8.7072 H         1 <0>         0.1045
     57 H26         1.7944    0.1376  -10.5967 H         1 <0>         0.1523
     58 H27         0.5451   -1.0757  -10.9645 H         1 <0>         0.1452
     59 H28        -0.1836    1.1359  -11.4785 H         1 <0>         0.4406
     60 H29        -1.0997    0.5025  -10.2643 H         1 <0>         0.4414
     61 H30        -0.6231    1.1996   -6.5030 H         1 <0>         0.0732
     62 H31        -1.8050    0.6028   -7.6927 H         1 <0>         0.0638
     63 H32        -2.3054    0.8926   -6.0093 H         1 <0>         0.0810
     64 H33         0.0567    1.6257   -9.9237 H         1 <0>         0.4345
@<TRIPOS>BOND
     1    1    2 1
     2    1   32 1
     3    1   33 1
     4    1   34 1
     5    2    3 1
     6    2   35 1
     7    2   36 1
     8    3    4 1
     9    4    9 ar
    10    4    5 ar
    11    5    6 ar
    12    5   17 1
    13    6    7 ar
    14    6   37 1
    15    7    8 ar
    16    7   11 1
    17    8    9 ar
    18    8   38 1
    19    9   10 1
    20   11   16 1
    21   11   12 1
    22   12   13 1
    23   12   39 1
    24   12   40 1
    25   13   14 1
    26   13   41 1
    27   13   42 1
    28   14   15 1
    29   14   43 1
    30   14   44 1
    31   15   16 1
    32   15   45 1
    33   15   46 1
    34   16   47 1
    35   16   48 1
    36   17   18 am
    37   17   49 1
    38   18   19 2
    39   18   20 1
    40   20   25 ar
    41   20   21 ar
    42   21   22 ar
    43   21   50 1
    44   22   23 ar
    45   22   31 1
    46   23   24 ar
    47   23   27 1
    48   24   25 ar
    49   24   26 1
    50   25   51 1
    51   26   52 1
    52   26   53 1
    53   26   54 1
    54   27   28 1
    55   28   29 1
    56   28   55 1
    57   28   56 1
    58   29   30 1
    59   29   57 1
    60   29   58 1
    61   30   59 1
    62   30   60 1
    63   30   64 1
    64   31   61 1
    65   31   62 1
    66   31   63 1
@<TRIPOS>MOLECULE
CHEMBL171353
   51    54     0     0     0
SMALL
USER_CHARGES

@<TRIPOS>ATOM
      1 C1         -0.9515    1.6714    0.5981 C.3       1 <0>        -0.2220
      2 S1         -0.6032   -0.0960    0.3845 S.3       1 <0>         0.1737
      3 C2          0.4391   -0.4929    1.7486 C.2       1 <0>        -0.0853
      4 C3          1.0160   -1.7171    2.0819 C.2       1 <0>        -0.0831
      5 C4          1.8031   -1.7826    3.2104 C.2       1 <0>         0.0200
      6 C5          1.9853   -0.6338    3.9603 C.2       1 <0>        -0.3233
      7 S2          1.0324    0.5717    3.0525 S.3       1 <0>         0.1770
      8 C6          2.7659   -0.4522    5.1836 C.cat     1 <0>         0.6518
      9 N1          2.8215    0.7502    5.7700 N.pl3     1 <0>        -0.7730
     10 N2          3.4249   -1.4883    5.7173 N.pl3     1 <0>        -0.7667
     11 C7          0.7876   -2.9197    1.2425 C.2       1 <0>         0.1480
     12 C8          1.3544   -4.1146    1.5827 C.2       1 <0>        -0.2483
     13 S3          0.7535   -5.1560    0.2592 S.3       1 <0>         0.0488
     14 C9         -0.1833   -3.9020   -0.6037 C.2       1 <0>         0.3842
     15 N3          0.0278   -2.8442    0.1599 N.2       1 <0>        -0.5686
     16 N4         -0.9354   -4.0111   -1.7630 N.pl3     1 <0>        -0.6036
     17 C10        -1.1330   -5.2647   -2.3537 C.ar      1 <0>         0.1008
     18 C11        -1.3370   -6.3838   -1.5570 C.ar      1 <0>        -0.1050
     19 C12        -1.5318   -7.6201   -2.1406 C.ar      1 <0>        -0.1192
     20 C13        -1.5239   -7.7444   -3.5221 C.ar      1 <0>         0.1305
     21 C14        -1.3202   -6.6272   -4.3187 C.ar      1 <0>        -0.1819
     22 C15        -1.1309   -5.3891   -3.7369 C.ar      1 <0>        -0.0876
     23 O1         -1.7154   -8.9623   -4.0959 O.3       1 <0>        -0.3041
     24 C16        -1.6948   -9.0172   -5.5237 C.3       1 <0>         0.1017
     25 C17        -1.9226  -10.4369   -5.9752 C.ar      1 <0>        -0.1033
     26 C18        -0.8469  -11.2869   -6.1522 C.ar      1 <0>        -0.0948
     27 C19        -1.0558  -12.5891   -6.5663 C.ar      1 <0>        -0.1224
     28 C20        -2.3405  -13.0414   -6.8030 C.ar      1 <0>        -0.1058
     29 C21        -3.4162  -12.1917   -6.6250 C.ar      1 <0>        -0.1222
     30 C22        -3.2076  -10.8908   -6.2068 C.ar      1 <0>        -0.0946
     31 H1         -0.0165    2.2312    0.5770 H         1 <0>         0.0949
     32 H2         -1.5986    2.0144   -0.2092 H         1 <0>         0.1303
     33 H3         -1.4488    1.8307    1.5549 H         1 <0>         0.0950
     34 H4          2.2684   -2.7119    3.5043 H         1 <0>         0.1548
     35 H5          3.3392    0.8707    6.5814 H         1 <0>         0.4346
     36 H6          3.3846   -2.3594    5.2925 H         1 <0>         0.4432
     37 H7          3.9426   -1.3679    6.5287 H         1 <0>         0.4343
     38 H8          1.9901   -4.3622    2.4199 H         1 <0>         0.1943
     39 H9         -1.3247   -3.2187   -2.1650 H         1 <0>         0.4276
     40 H10        -1.3429   -6.2873   -0.4813 H         1 <0>         0.1348
     41 H11        -1.6901   -8.4905   -1.5211 H         1 <0>         0.1416
     42 H12        -1.3141   -6.7249   -5.3942 H         1 <0>         0.1392
     43 H13        -0.9771   -4.5186   -4.3573 H         1 <0>         0.1355
     44 H14        -2.4823   -8.3782   -5.9233 H         1 <0>         0.0743
     45 H15        -0.7270   -8.6714   -5.8868 H         1 <0>         0.0740
     46 H16         0.1567  -10.9334   -5.9674 H         1 <0>         0.1241
     47 H17        -0.2154  -13.2529   -6.7053 H         1 <0>         0.1270
     48 H18        -2.5036  -14.0586   -7.1272 H         1 <0>         0.1264
     49 H19        -4.4198  -12.5451   -6.8102 H         1 <0>         0.1271
     50 H20        -4.0483  -10.2280   -6.0642 H         1 <0>         0.1243
     51 H21         2.3441    1.5009    5.3834 H         1 <0>         0.4408
@<TRIPOS>BOND
     1    1    2 1
     2    1   31 1
     3    1   32 1
     4    1   33 1
     5    2    3 1
     6    3    7 1
     7    3    4 2
     8    4    5 1
     9    4   11 1
    10    5    6 2
    11    5   34 1
    12    6    7 1
    13    6    8 1
    14    8    9 2
    15    8   10 1
    16    9   35 1
    17    9   51 1
    18   10   36 1
    19   10   37 1
    20   11   15 1
    21   11   12 2
    22   12   13 1
    23   12   38 1
    24   13   14 1
    25   14   15 2
    26   14   16 1
    27   16   17 1
    28   16   39 1
    29   17   22 ar
    30   17   18 ar
    31   18   19 ar
    32   18   40 1
    33   19   20 ar
    34   19   41 1
    35   20   21 ar
    36   20   23 1
    37   21   22 ar
    38   21   42 1
    39   22   43 1
    40   23   24 1
    41   24   25 1
    42   24   44 1
    43   24   45 1
    44   25   30 ar
    45   25   26 ar
    46   26   27 ar
    47   26   46 1
    48   27   28 ar
    49   27   47 1
    50   28   29 ar
    51   28   48 1
    52   29   30 ar
    53   29   49 1
    54   30   50 1
@<TRIPOS>MOLECULE
CHEMBL117368
   29    31     0     0     0
SMALL
USER_CHARGES

@<TRIPOS>ATOM
      1 C1         -0.0362    1.3794    0.0622 C.ar      1 <0>        -0.1116
      2 C2          1.1185    2.1024    0.0551 C.ar      1 <0>        -0.1033
      3 C3          2.3575    1.4432    0.0221 C.ar      1 <0>        -0.1283
      4 C4          3.5688    2.1655    0.0146 C.ar      1 <0>        -0.0212
      5 C5          4.7374    1.4663   -0.0175 C.ar      1 <0>        -0.2141
      6 C6          4.7122    0.0645   -0.0421 C.ar      1 <0>         0.4255
      7 N1          3.5774   -0.6038   -0.0349 N.ar      1 <0>        -0.5546
      8 C7          2.3997    0.0290   -0.0037 C.ar      1 <0>         0.1633
      9 C8          1.1875   -0.6937    0.0040 C.ar      1 <0>         0.1647
     10 C9         -0.0095   -0.0114    0.0371 C.ar      1 <0>        -0.1073
     11 N2          1.2008   -2.0902   -0.0214 N.pl3     1 <0>        -0.6162
     12 C10         0.1115   -2.7842   -0.5216 C.ar      1 <0>         0.5544
     13 N3         -0.8813   -2.1109   -1.0846 N.ar      1 <0>        -0.5559
     14 C11        -1.9358   -2.7431   -1.5722 C.ar      1 <0>         0.1867
     15 C12        -1.9939   -4.1255   -1.4886 C.ar      1 <0>        -0.2837
     16 C13        -0.9381   -4.7983   -0.8935 C.ar      1 <0>         0.1921
     17 N4          0.0894   -4.1059   -0.4308 N.ar      1 <0>        -0.5625
     18 N5          5.9106   -0.6347   -0.0752 N.pl3     1 <0>        -0.8468
     19 H1         -0.9857    1.8932    0.0922 H         1 <0>         0.1276
     20 H2          1.0808    3.1815    0.0744 H         1 <0>         0.1273
     21 H3          3.5698    3.2453    0.0335 H         1 <0>         0.1425
     22 H4          5.6816    1.9906   -0.0244 H         1 <0>         0.1353
     23 H5         -0.9380   -0.5630    0.0433 H         1 <0>         0.1533
     24 H6          1.9729   -2.5740    0.3114 H         1 <0>         0.4297
     25 H7         -2.7421   -2.1888   -2.0295 H         1 <0>         0.1711
     26 H8         -2.8434   -4.6666   -1.8784 H         1 <0>         0.1473
     27 H9         -0.9526   -5.8752   -0.8123 H         1 <0>         0.1707
     28 H10         6.7528   -0.1535   -0.0812 H         1 <0>         0.4091
     29 H11         5.9059   -1.6045   -0.0925 H         1 <0>         0.4052
@<TRIPOS>BOND
     1    1   10 ar
     2    1    2 ar
     3    1   19 1
     4    2    3 ar
     5    2   20 1
     6    3    8 ar
     7    3    4 ar
     8    4    5 ar
     9    4   21 1
    10    5    6 ar
    11    5   22 1
    12    6    7 ar
    13    6   18 1
    14    7    8 ar
    15    8    9 ar
    16    9   10 ar
    17    9   11 1
    18   10   23 1
    19   11   12 1
    20   11   24 1
    21   12   17 ar
    22   12   13 ar
    23   13   14 ar
    24   14   15 ar
    25   14   25 1
    26   15   16 ar
    27   15   26 1
    28   16   17 ar
    29   16   27 1
    30   18   28 1
    31   18   29 1
@<TRIPOS>MOLECULE
CHEMBL328772
   32    34     0     0     0
SMALL
USER_CHARGES

@<TRIPOS>ATOM
      1 C1         -0.0167    1.3795    0.0096 C.ar      1 <0>        -0.2525
      2 C2          1.1655    2.0912    0.0022 C.ar      1 <0>        -0.0353
      3 C3          2.3852    1.4143   -0.0131 C.ar      1 <0>        -0.2287
      4 C4          2.4007    0.0143   -0.0208 C.ar      1 <0>         0.3173
      5 C5          1.2052   -0.6864   -0.0132 C.ar      1 <0>        -0.2184
      6 C6          0.0021   -0.0041    0.0020 C.ar      1 <0>        -0.0240
      7 Br1         1.2186   -2.5773   -0.0241 Br        1 <0>        -0.0826
      8 O1          3.5831   -0.6544   -0.0362 O.3       1 <0>        -0.6715
      9 C7          3.6548    2.1714   -0.0217 C.2       1 <0>         0.2069
     10 C8          4.7696    1.8362    0.6739 C.2       1 <0>        -0.1738
     11 C9          5.7782    2.8526    0.3746 C.ar      1 <0>        -0.1053
     12 C10         7.0980    3.0503    0.7797 C.ar      1 <0>         0.0086
     13 C11         7.8028    4.1480    0.2980 C.ar      1 <0>        -0.2020
     14 C12         7.1874    5.0446   -0.5860 C.ar      1 <0>        -0.0754
     15 C13         5.8969    4.8547   -0.9840 C.ar      1 <0>        -0.1125
     16 C14         5.1711    3.7617   -0.5154 C.ar      1 <0>         0.1384
     17 N1          3.8882    3.3208   -0.7412 N.pl3     1 <0>        -0.5759
     18 H1          3.2430    3.7566   -1.3197 H         1 <0>         0.4199
     19 C15         9.2021    4.3696    0.7191 C.cat     1 <0>         0.6059
     20 N2          9.8779    5.4210    0.2580 N.pl3     1 <0>        -0.7756
     21 N3          9.7876    3.5179    1.5597 N.pl3     1 <0>        -0.7741
     22 H2         -0.9604    1.9045    0.0260 H         1 <0>         0.1089
     23 H3          1.1465    3.1710    0.0078 H         1 <0>         0.0976
     24 H4         -0.9274   -0.5540    0.0083 H         1 <0>         0.1097
     25 H5          4.8897    0.9825    1.3244 H         1 <0>         0.1611
     26 H6          7.5683    2.3573    1.4617 H         1 <0>         0.1324
     27 H7          7.7409    5.8951   -0.9557 H         1 <0>         0.1285
     28 H8          5.4356    5.5545   -1.6651 H         1 <0>         0.1354
     29 H9          9.4516    6.0411   -0.3541 H         1 <0>         0.4413
     30 H10         9.2955    2.7524    1.8955 H         1 <0>         0.4434
     31 H11        10.7059    3.6634    1.8361 H         1 <0>         0.4266
     32 H12        10.7963    5.5665    0.5343 H         1 <0>         0.4261
@<TRIPOS>BOND
     1    1    6 ar
     2    1    2 ar
     3    1   22 1
     4    2    3 ar
     5    2   23 1
     6    3    4 ar
     7    3    9 1
     8    4    5 ar
     9    4    8 1
    10    5    6 ar
    11    5    7 1
    12    6   24 1
    13    9   17 1
    14    9   10 2
    15   10   11 1
    16   10   25 1
    17   11   16 ar
    18   11   12 ar
    19   12   13 ar
    20   12   26 1
    21   13   14 ar
    22   13   19 1
    23   14   15 ar
    24   14   27 1
    25   15   16 ar
    26   15   28 1
    27   16   17 1
    28   17   18 1
    29   19   20 2
    30   19   21 1
    31   20   29 1
    32   20   32 1
    33   21   30 1
    34   21   31 1
@<TRIPOS>MOLECULE
CHEMBL328772__1
   33    35     0     0     0
SMALL
USER_CHARGES

@<TRIPOS>ATOM
      1 C1         -0.0167    1.3795    0.0096 C.ar      1 <0>        -0.1147
      2 C2          1.1655    2.0912    0.0022 C.ar      1 <0>        -0.0592
      3 C3          2.3852    1.4143   -0.0131 C.ar      1 <0>        -0.0749
      4 C4          2.4007    0.0143   -0.0208 C.ar      1 <0>         0.1473
      5 C5          1.2052   -0.6864   -0.0132 C.ar      1 <0>        -0.1186
      6 C6          0.0021   -0.0041    0.0020 C.ar      1 <0>        -0.0587
      7 Br1         1.2186   -2.5773   -0.0241 Br        1 <0>        -0.0181
      8 O1          3.5831   -0.6544   -0.0362 O.3       1 <0>        -0.4793
      9 C7          3.6548    2.1714   -0.0217 C.2       1 <0>         0.1508
     10 C8          3.8830    3.3074   -0.7263 C.2       1 <0>        -0.1655
     11 C9          5.2595    3.7132   -0.4431 C.ar      1 <0>        -0.1142
     12 C10         6.0568    4.7779   -0.8625 C.ar      1 <0>         0.0157
     13 C11         7.3623    4.8789   -0.3943 C.ar      1 <0>        -0.1878
     14 C12         7.8673    3.9165    0.4905 C.ar      1 <0>        -0.0566
     15 C13         7.0908    2.8738    0.9024 C.ar      1 <0>        -0.1108
     16 C14         5.7796    2.7522    0.4475 C.ar      1 <0>         0.1567
     17 N1          4.7841    1.8346    0.6887 N.pl3     1 <0>        -0.5682
     18 H1          4.8665    1.0632    1.2710 H         1 <0>         0.4233
     19 C15         8.2182    6.0021   -0.8305 C.cat     1 <0>         0.6050
     20 N2          9.4690    6.0995   -0.3824 N.pl3     1 <0>        -0.7666
     21 N3          7.7389    6.9171   -1.6719 N.pl3     1 <0>        -0.7684
     22 H2         -0.9604    1.9045    0.0260 H         1 <0>         0.1470
     23 H3          1.1465    3.1710    0.0078 H         1 <0>         0.1435
     24 H4         -0.9274   -0.5540    0.0083 H         1 <0>         0.1462
     25 H5          3.9342   -0.8528    0.8427 H         1 <0>         0.3903
     26 H6          3.1826    3.8150   -1.3729 H         1 <0>         0.1642
     27 H7          5.6639    5.5171   -1.5449 H         1 <0>         0.1395
     28 H8          8.8823    4.0013    0.8496 H         1 <0>         0.1384
     29 H9          7.4939    2.1394    1.5839 H         1 <0>         0.1444
     30 H10        10.0308    6.8366   -0.6687 H         1 <0>         0.4317
     31 H11         6.8282    6.8462   -1.9982 H         1 <0>         0.4428
     32 H12         8.3007    7.6542   -1.9582 H         1 <0>         0.4319
     33 H13         9.8180    5.4333    0.2302 H         1 <0>         0.4432
@<TRIPOS>BOND
     1    1    6 ar
     2    1    2 ar
     3    1   22 1
     4    2    3 ar
     5    2   23 1
     6    3    4 ar
     7    3    9 1
     8    4    5 ar
     9    4    8 1
    10    5    6 ar
    11    5    7 1
    12    6   24 1
    13    8   25 1
    14    9   17 1
    15    9   10 2
    16   10   11 1
    17   10   26 1
    18   11   16 ar
    19   11   12 ar
    20   12   13 ar
    21   12   27 1
    22   13   14 ar
    23   13   19 1
    24   14   15 ar
    25   14   28 1
    26   15   16 ar
    27   15   29 1
    28   16   17 1
    29   17   18 1
    30   19   20 2
    31   19   21 1
    32   20   30 1
    33   20   33 1
    34   21   31 1
    35   21   32 1
@<TRIPOS>MOLECULE
CHEMBL185515
   63    67     0     0     0
SMALL
USER_CHARGES

@<TRIPOS>ATOM
      1 C1         -0.1032   -2.4210    0.5894 C.3       1 <0>        -0.1834
      2 C2         -1.2745   -1.4394    0.6619 C.3       1 <0>        -0.1113
      3 C3         -0.7633   -0.0170    0.4245 C.3       1 <0>        -0.1603
      4 C4         -2.3061   -1.7961   -0.4102 C.3       1 <0>         0.0840
      5 C5         -3.5990   -1.0840   -0.1118 C.ar      1 <0>        -0.1155
      6 C6         -3.5459    0.2310    0.3263 C.ar      1 <0>        -0.1073
      7 C7         -4.7084    0.9195    0.6085 C.ar      1 <0>        -0.0336
      8 C8         -5.9331    0.2968    0.4533 C.ar      1 <0>        -0.0936
      9 C9         -5.9878   -1.0121    0.0178 C.ar      1 <0>        -0.1003
     10 C10        -4.8206   -1.7049   -0.2637 C.ar      1 <0>        -0.0940
     11 C11        -4.9227   -3.1351   -0.7286 C.3       1 <0>        -0.1063
     12 C12        -3.5980   -3.5715   -1.3557 C.3       1 <0>        -0.0036
     13 N1         -2.5080   -3.2478   -0.4226 N.4       1 <0>        -0.3805
     14 C13        -2.8638   -3.7061    0.9270 C.3       1 <0>        -0.0633
     15 C14        -4.6429    2.3478    1.0845 C.3       1 <0>        -0.1098
     16 C15        -5.9676    3.0619    1.3606 C.3       1 <0>        -0.1616
     17 C16        -5.1399    3.4345    0.1289 C.3       1 <0>        -0.1168
     18 C17        -5.6574    2.9945   -1.2163 C.ar      1 <0>        -0.0057
     19 C18        -6.9536    2.4937   -1.3225 C.ar      1 <0>        -0.1022
     20 C19        -7.4511    2.0879   -2.5225 C.ar      1 <0>        -0.0884
     21 C20        -6.6482    2.1745   -3.6740 C.ar      1 <0>        -0.0686
     22 C21        -7.1301    1.7655   -4.9267 C.ar      1 <0>        -0.0123
     23 C22        -6.3103    1.8663   -6.0374 C.ar      1 <0>        -0.1534
     24 C23        -5.0045    2.3735   -5.9173 C.ar      1 <0>        -0.0925
     25 C24        -4.5212    2.7741   -4.7137 C.ar      1 <0>        -0.0821
     26 C25        -5.3296    2.6845   -3.5657 C.ar      1 <0>        -0.0067
     27 C26        -4.8535    3.0976   -2.3101 C.ar      1 <0>        -0.1096
     28 C27        -6.8116    1.4365   -7.3609 C.cat     1 <0>         0.5976
     29 N2         -6.0272    1.5312   -8.4329 N.pl3     1 <0>        -0.7596
     30 N3         -8.0475    0.9548   -7.4805 N.pl3     1 <0>        -0.7639
     31 H1          0.6759   -2.1091    1.2849 H         1 <0>         0.0932
     32 H2         -0.4492   -3.4198    0.8556 H         1 <0>         0.0587
     33 H3          0.2981   -2.4336   -0.4239 H         1 <0>         0.0726
     34 H4         -1.7383   -1.4992    1.6465 H         1 <0>         0.1014
     35 H5         -0.9288    0.2596   -0.6167 H         1 <0>         0.0678
     36 H6         -1.2996    0.6750    1.0739 H         1 <0>         0.0797
     37 H7          0.3028    0.0279    0.6473 H         1 <0>         0.0819
     38 H8         -1.9369   -1.4763   -1.3847 H         1 <0>         0.1408
     39 H9         -2.5899    0.7186    0.4475 H         1 <0>         0.1562
     40 H10        -6.8446    0.8330    0.6725 H         1 <0>         0.1332
     41 H11        -6.9442   -1.4987   -0.1037 H         1 <0>         0.1333
     42 H12        -5.1498   -3.7774    0.1223 H         1 <0>         0.1056
     43 H13        -5.7190   -3.2198   -1.4681 H         1 <0>         0.1181
     44 H14        -3.6161   -4.6458   -1.5387 H         1 <0>         0.1385
     45 H15        -3.4453   -3.0401   -2.2951 H         1 <0>         0.1287
     46 H16        -3.7054   -3.1219    1.2990 H         1 <0>         0.1267
     47 H17        -3.1404   -4.7599    0.8916 H         1 <0>         0.1271
     48 H18        -2.0096   -3.5768    1.5916 H         1 <0>         0.1298
     49 H19        -3.7963    2.5910    1.7266 H         1 <0>         0.1283
     50 H20        -6.8865    2.4986    1.1979 H         1 <0>         0.1051
     51 H21        -5.9928    3.7750    2.1846 H         1 <0>         0.1163
     52 H22        -4.6205    4.3927    0.1426 H         1 <0>         0.1326
     53 H23        -7.5721    2.4262   -0.4397 H         1 <0>         0.1365
     54 H24        -8.4572    1.7011   -2.5901 H         1 <0>         0.1401
     55 H25        -8.1324    1.3749   -5.0235 H         1 <0>         0.1415
     56 H26        -4.3777    2.4451   -6.7939 H         1 <0>         0.1356
     57 H27        -3.5159    3.1613   -4.6373 H         1 <0>         0.1482
     58 H28        -3.8529    3.4920   -2.2125 H         1 <0>         0.1401
     59 H29        -5.1271    1.8820   -8.3458 H         1 <0>         0.4447
     60 H30        -8.6188    0.8859   -6.6996 H         1 <0>         0.4427
     61 H31        -8.3763    0.6730   -8.3484 H         1 <0>         0.4353
     62 H32        -6.3560    1.2493   -9.3009 H         1 <0>         0.4349
     63 H33        -1.6597   -3.7042   -0.7230 H         1 <0>         0.4295
@<TRIPOS>BOND
     1    1    2 1
     2    1   31 1
     3    1   32 1
     4    1   33 1
     5    2    3 1
     6    2    4 1
     7    2   34 1
     8    3   35 1
     9    3   36 1
    10    3   37 1
    11    4   13 1
    12    4    5 1
    13    4   38 1
    14    5   10 ar
    15    5    6 ar
    16    6    7 ar
    17    6   39 1
    18    7    8 ar
    19    7   15 1
    20    8    9 ar
    21    8   40 1
    22    9   10 ar
    23    9   41 1
    24   10   11 1
    25   11   12 1
    26   11   42 1
    27   11   43 1
    28   12   13 1
    29   12   44 1
    30   12   45 1
    31   13   14 1
    32   13   63 1
    33   14   46 1
    34   14   47 1
    35   14   48 1
    36   15   17 1
    37   15   16 1
    38   15   49 1
    39   16   17 1
    40   16   50 1
    41   16   51 1
    42   17   18 1
    43   17   52 1
    44   18   27 ar
    45   18   19 ar
    46   19   20 ar
    47   19   53 1
    48   20   21 ar
    49   20   54 1
    50   21   26 ar
    51   21   22 ar
    52   22   23 ar
    53   22   55 1
    54   23   24 ar
    55   23   28 1
    56   24   25 ar
    57   24   56 1
    58   25   26 ar
    59   25   57 1
    60   26   27 ar
    61   27   58 1
    62   28   29 2
    63   28   30 1
    64   29   59 1
    65   29   62 1
    66   30   60 1
    67   30   61 1
@<TRIPOS>MOLECULE
CHEMBL185515__1
   63    67     0     0     0
SMALL
USER_CHARGES

@<TRIPOS>ATOM
      1 C1          1.1290   -0.8966   -0.2840 C.3       1 <0>        -0.1833
      2 C2         -0.0540    0.0284    0.0090 C.3       1 <0>        -0.1107
      3 C3          0.3713    1.4828   -0.2024 C.3       1 <0>        -0.1599
      4 C4         -1.2100   -0.3073   -0.9353 C.3       1 <0>         0.0833
      5 C5         -2.4735    0.3292   -0.4193 C.ar      1 <0>        -0.1161
      6 C6         -2.4061    1.6166    0.0926 C.ar      1 <0>        -0.1087
      7 C7         -3.5419    2.2363    0.5733 C.ar      1 <0>        -0.0397
      8 C8         -4.7541    1.5719    0.5443 C.ar      1 <0>        -0.0957
      9 C9         -4.8229    0.2903    0.0356 C.ar      1 <0>        -0.0978
     10 C10        -3.6823   -0.3334   -0.4454 C.ar      1 <0>        -0.0912
     11 C11        -3.7979   -1.7362   -0.9847 C.3       1 <0>        -0.1081
     12 C12        -2.5576   -2.0767   -1.8119 C.3       1 <0>        -0.0046
     13 N1         -1.3616   -1.7630   -1.0152 N.4       1 <0>        -0.3805
     14 C13        -1.5128   -2.3165    0.3372 C.3       1 <0>        -0.0630
     15 C14        -3.4609    3.6349    1.1285 C.3       1 <0>        -0.1057
     16 C15        -4.7032    4.1904    1.8279 C.3       1 <0>        -0.1599
     17 C16        -4.3036    4.7152    0.4475 C.3       1 <0>        -0.1127
     18 C17        -3.7248    6.1046    0.3721 C.ar      1 <0>        -0.0124
     19 C18        -3.4023    6.7784    1.5486 C.ar      1 <0>        -0.1076
     20 C19        -2.8781    8.0338    1.5152 C.ar      1 <0>        -0.0847
     21 C20        -2.6569    8.6630    0.2769 C.ar      1 <0>        -0.0696
     22 C21        -2.1175    9.9563    0.2065 C.ar      1 <0>        -0.0110
     23 C22        -1.9139   10.5425   -1.0308 C.ar      1 <0>        -0.1526
     24 C23        -2.2430    9.8523   -2.2107 C.ar      1 <0>        -0.0907
     25 C24        -2.7657    8.6005   -2.1621 C.ar      1 <0>        -0.0819
     26 C25        -2.9847    7.9771   -0.9201 C.ar      1 <0>        -0.0073
     27 C26        -3.5197    6.6802   -0.8445 C.ar      1 <0>        -0.1094
     28 C27        -1.3460   11.9058   -1.1123 C.cat     1 <0>         0.5985
     29 N2         -1.1480   12.4747   -2.3001 N.pl3     1 <0>        -0.7597
     30 N3         -1.0328   12.5644    0.0020 N.pl3     1 <0>        -0.7634
     31 H1          1.9827   -0.5986    0.3247 H         1 <0>         0.0917
     32 H2          0.8543   -1.9242   -0.0463 H         1 <0>         0.0592
     33 H3          1.3928   -0.8258   -1.3393 H         1 <0>         0.0735
     34 H4         -0.3761   -0.1096    1.0411 H         1 <0>         0.1008
     35 H5          0.0546    1.8139   -1.1915 H         1 <0>         0.0689
     36 H6         -0.0936    2.1114    0.5571 H         1 <0>         0.0779
     37 H7          1.4557    1.5595   -0.1236 H         1 <0>         0.0802
     38 H8         -0.9894    0.0860   -1.9276 H         1 <0>         0.1427
     39 H9         -1.4599    2.1367    0.1154 H         1 <0>         0.1546
     40 H10        -5.6449    2.0542    0.9190 H         1 <0>         0.1362
     41 H11        -5.7697   -0.2288    0.0126 H         1 <0>         0.1369
     42 H12        -3.8838   -2.4376   -0.1548 H         1 <0>         0.1057
     43 H13        -4.6848   -1.8105   -1.6141 H         1 <0>         0.1223
     44 H14        -2.5636   -3.1379   -2.0606 H         1 <0>         0.1398
     45 H15        -2.5537   -1.4838   -2.7266 H         1 <0>         0.1321
     46 H16        -2.3243   -1.8019    0.8518 H         1 <0>         0.1264
     47 H17        -1.7412   -3.3802    0.2710 H         1 <0>         0.1273
     48 H18        -0.5850   -2.1780    0.8922 H         1 <0>         0.1283
     49 H19        -2.4878    3.9291    1.5217 H         1 <0>         0.1210
     50 H20        -5.5790    3.5442    1.8865 H         1 <0>         0.1109
     51 H21        -4.5475    4.8500    2.6816 H         1 <0>         0.1113
     52 H22        -4.9165    4.4143   -0.4022 H         1 <0>         0.1237
     53 H23        -3.5712    6.2974    2.5007 H         1 <0>         0.1385
     54 H24        -2.6335    8.5445    2.4348 H         1 <0>         0.1419
     55 H25        -1.8635   10.4903    1.1103 H         1 <0>         0.1428
     56 H26        -2.0782   10.3243   -3.1680 H         1 <0>         0.1363
     57 H27        -3.0139    8.0832   -3.0771 H         1 <0>         0.1488
     58 H28        -3.7706    6.1435   -1.7475 H         1 <0>         0.1398
     59 H29        -1.3761   11.9950   -3.1117 H         1 <0>         0.4446
     60 H30        -1.1770   12.1500    0.8671 H         1 <0>         0.4430
     61 H31        -0.6604   13.4585   -0.0515 H         1 <0>         0.4351
     62 H32        -0.7756   13.3688   -2.3536 H         1 <0>         0.4346
     63 H33        -0.5474   -2.1636   -1.4563 H         1 <0>         0.4294
@<TRIPOS>BOND
     1    1    2 1
     2    1   31 1
     3    1   32 1
     4    1   33 1
     5    2    3 1
     6    2    4 1
     7    2   34 1
     8    3   35 1
     9    3   36 1
    10    3   37 1
    11    4   13 1
    12    4    5 1
    13    4   38 1
    14    5   10 ar
    15    5    6 ar
    16    6    7 ar
    17    6   39 1
    18    7    8 ar
    19    7   15 1
    20    8    9 ar
    21    8   40 1
    22    9   10 ar
    23    9   41 1
    24   10   11 1
    25   11   12 1
    26   11   42 1
    27   11   43 1
    28   12   13 1
    29   12   44 1
    30   12   45 1
    31   13   14 1
    32   13   63 1
    33   14   46 1
    34   14   47 1
    35   14   48 1
    36   15   17 1
    37   15   16 1
    38   15   49 1
    39   16   17 1
    40   16   50 1
    41   16   51 1
    42   17   18 1
    43   17   52 1
    44   18   27 ar
    45   18   19 ar
    46   19   20 ar
    47   19   53 1
    48   20   21 ar
    49   20   54 1
    50   21   26 ar
    51   21   22 ar
    52   22   23 ar
    53   22   55 1
    54   23   24 ar
    55   23   28 1
    56   24   25 ar
    57   24   56 1
    58   25   26 ar
    59   25   57 1
    60   26   27 ar
    61   27   58 1
    62   28   29 2
    63   28   30 1
    64   29   59 1
    65   29   62 1
    66   30   60 1
    67   30   61 1
@<TRIPOS>MOLECULE
CHEMBL185515__2
   63    67     0     0     0
SMALL
USER_CHARGES

@<TRIPOS>ATOM
      1 C1          1.1290   -0.8965   -0.2840 C.3       1 <0>        -0.1835
      2 C2         -0.0540    0.0284    0.0090 C.3       1 <0>        -0.1092
      3 C3          0.3712    1.4829   -0.2025 C.3       1 <0>        -0.1608
      4 C4         -1.2101   -0.3074   -0.9353 C.3       1 <0>         0.0823
      5 C5         -2.4735    0.3292   -0.4193 C.ar      1 <0>        -0.1159
      6 C6         -2.4061    1.6166    0.0926 C.ar      1 <0>        -0.1086
      7 C7         -3.5419    2.2362    0.5733 C.ar      1 <0>        -0.0396
      8 C8         -4.7541    1.5719    0.5443 C.ar      1 <0>        -0.0957
      9 C9         -4.8229    0.2903    0.0357 C.ar      1 <0>        -0.0977
     10 C10        -3.6823   -0.3334   -0.4454 C.ar      1 <0>        -0.0914
     11 C11        -3.7979   -1.7363   -0.9847 C.3       1 <0>        -0.1078
     12 C12        -2.5576   -2.0767   -1.8118 C.3       1 <0>        -0.0051
     13 N1         -1.3616   -1.7630   -1.0151 N.4       1 <0>        -0.3804
     14 C13        -1.5127   -2.3165    0.3372 C.3       1 <0>        -0.0625
     15 C14        -3.4610    3.6349    1.1285 C.3       1 <0>        -0.1057
     16 C15        -4.7775    4.3417    1.4576 C.3       1 <0>        -0.1598
     17 C16        -3.8748    3.8411    2.5870 C.3       1 <0>        -0.1130
     18 C17        -3.1210    4.8737    3.3848 C.ar      1 <0>        -0.0119
     19 C18        -3.1288    6.2033    2.9673 C.ar      1 <0>        -0.1076
     20 C19        -2.4584    7.1601    3.6653 C.ar      1 <0>        -0.0843
     21 C20        -1.7469    6.8053    4.8255 C.ar      1 <0>        -0.0696
     22 C21        -1.0455    7.7667    5.5688 C.ar      1 <0>        -0.0107
     23 C22        -0.3572    7.3791    6.7054 C.ar      1 <0>        -0.1527
     24 C23        -0.3572    6.0345    7.1165 C.ar      1 <0>        -0.0906
     25 C24        -1.0300    5.0907    6.4101 C.ar      1 <0>        -0.0823
     26 C25        -1.7395    5.4524    5.2502 C.ar      1 <0>        -0.0074
     27 C26        -2.4476    4.4944    4.5055 C.ar      1 <0>        -0.1100
     28 C27         0.3847    8.3873    7.4934 C.cat     1 <0>         0.5984
     29 N2          1.0487    8.0201    8.5879 N.pl3     1 <0>        -0.7597
     30 N3          0.3886    9.6622    7.1085 N.pl3     1 <0>        -0.7633
     31 H1          1.9827   -0.5986    0.3247 H         1 <0>         0.0909
     32 H2          0.8543   -1.9242   -0.0463 H         1 <0>         0.0589
     33 H3          1.3928   -0.8258   -1.3393 H         1 <0>         0.0744
     34 H4         -0.3761   -0.1095    1.0411 H         1 <0>         0.0993
     35 H5          0.0546    1.8138   -1.1915 H         1 <0>         0.0706
     36 H6         -0.0936    2.1114    0.5571 H         1 <0>         0.0776
     37 H7          1.4557    1.5595   -0.1236 H         1 <0>         0.0798
     38 H8         -0.9894    0.0860   -1.9276 H         1 <0>         0.1439
     39 H9         -1.4599    2.1367    0.1154 H         1 <0>         0.1546
     40 H10        -5.6449    2.0542    0.9190 H         1 <0>         0.1362
     41 H11        -5.7697   -0.2288    0.0126 H         1 <0>         0.1369
     42 H12        -3.8838   -2.4377   -0.1547 H         1 <0>         0.1051
     43 H13        -4.6848   -1.8106   -1.6140 H         1 <0>         0.1227
     44 H14        -2.5636   -3.1379   -2.0606 H         1 <0>         0.1399
     45 H15        -2.5537   -1.4839   -2.7265 H         1 <0>         0.1330
     46 H16        -2.3242   -1.8019    0.8518 H         1 <0>         0.1259
     47 H17        -1.7412   -3.3802    0.2711 H         1 <0>         0.1270
     48 H18        -0.5849   -2.1780    0.8923 H         1 <0>         0.1274
     49 H19        -2.6432    4.2459    0.7462 H         1 <0>         0.1213
     50 H20        -4.8261    5.4179    1.2916 H         1 <0>         0.1114
     51 H21        -5.7021    3.7950    1.2725 H         1 <0>         0.1110
     52 H22        -4.2056    2.9651    3.1449 H         1 <0>         0.1234
     53 H23        -3.6744    6.4783    2.0768 H         1 <0>         0.1388
     54 H24        -2.4723    8.1866    3.3298 H         1 <0>         0.1421
     55 H25        -1.0425    8.8005    5.2564 H         1 <0>         0.1429
     56 H26         0.1853    5.7490    8.0055 H         1 <0>         0.1362
     57 H27        -1.0205    4.0618    6.7382 H         1 <0>         0.1484
     58 H28        -2.4547    3.4609    4.8187 H         1 <0>         0.1394
     59 H29         1.0459    7.0915    8.8682 H         1 <0>         0.4446
     60 H30        -0.0951    9.9297    6.3113 H         1 <0>         0.4430
     61 H31         0.8751   10.3234    7.6253 H         1 <0>         0.4352
     62 H32         1.5353    8.6812    9.1046 H         1 <0>         0.4346
     63 H33        -0.5474   -2.1636   -1.4563 H         1 <0>         0.4295
@<TRIPOS>BOND
     1    1    2 1
     2    1   31 1
     3    1   32 1
     4    1   33 1
     5    2    3 1
     6    2    4 1
     7    2   34 1
     8    3   35 1
     9    3   36 1
    10    3   37 1
    11    4   13 1
    12    4    5 1
    13    4   38 1
    14    5   10 ar
    15    5    6 ar
    16    6    7 ar
    17    6   39 1
    18    7    8 ar
    19    7   15 1
    20    8    9 ar
    21    8   40 1
    22    9   10 ar
    23    9   41 1
    24   10   11 1
    25   11   12 1
    26   11   42 1
    27   11   43 1
    28   12   13 1
    29   12   44 1
    30   12   45 1
    31   13   14 1
    32   13   63 1
    33   14   46 1
    34   14   47 1
    35   14   48 1
    36   15   17 1
    37   15   16 1
    38   15   49 1
    39   16   17 1
    40   16   50 1
    41   16   51 1
    42   17   18 1
    43   17   52 1
    44   18   27 ar
    45   18   19 ar
    46   19   20 ar
    47   19   53 1
    48   20   21 ar
    49   20   54 1
    50   21   26 ar
    51   21   22 ar
    52   22   23 ar
    53   22   55 1
    54   23   24 ar
    55   23   28 1
    56   24   25 ar
    57   24   56 1
    58   25   26 ar
    59   25   57 1
    60   26   27 ar
    61   27   58 1
    62   28   29 2
    63   28   30 1
    64   29   59 1
    65   29   62 1
    66   30   60 1
    67   30   61 1
@<TRIPOS>MOLECULE
CHEMBL185515__3
   63    67     0     0     0
SMALL
USER_CHARGES

@<TRIPOS>ATOM
      1 C1          0.9632   -1.3089    0.8106 C.3       1 <0>        -0.1840
      2 C2         -0.2642   -0.4281    0.5692 C.3       1 <0>        -0.1074
      3 C3          0.1869    0.9972    0.2438 C.3       1 <0>        -0.1629
      4 C4         -1.0710   -0.9880   -0.6040 C.3       1 <0>         0.0809
      5 C5         -2.4390   -0.3585   -0.6113 C.ar      1 <0>        -0.1140
      6 C6         -2.5466    0.9970   -0.3373 C.ar      1 <0>        -0.1070
      7 C7         -3.7821    1.6123   -0.3363 C.ar      1 <0>        -0.0332
      8 C8         -4.9193    0.8752   -0.6105 C.ar      1 <0>        -0.0928
      9 C9         -4.8141   -0.4741   -0.8829 C.ar      1 <0>        -0.1005
     10 C10        -3.5738   -1.0931   -0.8820 C.ar      1 <0>        -0.0945
     11 C11        -3.5024   -2.5699   -1.1758 C.3       1 <0>        -0.1047
     12 C12        -2.0644   -2.9603   -1.5194 C.3       1 <0>        -0.0059
     13 N1         -1.1741   -2.4438   -0.4686 N.4       1 <0>        -0.3801
     14 C13        -1.7264   -2.7768    0.8512 C.3       1 <0>        -0.0611
     15 C14        -3.8914    3.0853   -0.0372 C.3       1 <0>        -0.1095
     16 C15        -5.2921    3.7005   -0.0193 C.3       1 <0>        -0.1618
     17 C16        -4.5319    3.4907    1.2918 C.3       1 <0>        -0.1175
     18 C17        -5.0052    2.3865    2.2016 C.ar      1 <0>        -0.0055
     19 C18        -4.1663    1.9247    3.2142 C.ar      1 <0>        -0.0937
     20 C19        -4.5634    0.9291    4.0526 C.ar      1 <0>        -0.0925
     21 C20        -5.8386    0.3561    3.8979 C.ar      1 <0>        -0.0688
     22 C21        -6.2796   -0.6716    4.7453 C.ar      1 <0>        -0.0148
     23 C22        -7.5414   -1.2104    4.5622 C.ar      1 <0>        -0.1519
     24 C23        -8.3786   -0.7357    3.5371 C.ar      1 <0>        -0.0917
     25 C24        -7.9689    0.2578    2.7078 C.ar      1 <0>        -0.0814
     26 C25        -6.6920    0.8264    2.8679 C.ar      1 <0>        -0.0051
     27 C26        -6.2478    1.8592    2.0254 C.ar      1 <0>        -0.1151
     28 C27        -8.0126   -2.2942    5.4515 C.cat     1 <0>         0.5975
     29 N2         -9.2257   -2.8163    5.2799 N.pl3     1 <0>        -0.7586
     30 N3         -7.2237   -2.7481    6.4238 N.pl3     1 <0>        -0.7647
     31 H1          1.5921   -0.8540    1.5759 H         1 <0>         0.0924
     32 H2          0.6423   -2.2959    1.1437 H         1 <0>         0.0570
     33 H3          1.5298   -1.4045   -0.1157 H         1 <0>         0.0750
     34 H4         -0.8853   -0.4170    1.4649 H         1 <0>         0.0977
     35 H5          0.1856    1.1410   -0.8366 H         1 <0>         0.0713
     36 H6         -0.4969    1.7092    0.7059 H         1 <0>         0.0794
     37 H7          1.1935    1.1569    0.6304 H         1 <0>         0.0819
     38 H8         -0.5611   -0.7491   -1.5373 H         1 <0>         0.1451
     39 H9         -1.6590    1.5739   -0.1234 H         1 <0>         0.1567
     40 H10        -5.8875    1.3538   -0.6112 H         1 <0>         0.1319
     41 H11        -5.7022   -1.0500   -1.0973 H         1 <0>         0.1320
     42 H12        -3.8307   -3.1299   -0.3002 H         1 <0>         0.1001
     43 H13        -4.1526   -2.8035   -2.0189 H         1 <0>         0.1211
     44 H14        -1.9817   -4.0461   -1.5679 H         1 <0>         0.1389
     45 H15        -1.7869   -2.5263   -2.4799 H         1 <0>         0.1343
     46 H16        -2.6619   -2.2376    1.0002 H         1 <0>         0.1240
     47 H17        -1.9124   -3.8494    0.9072 H         1 <0>         0.1242
     48 H18        -1.0148   -2.4906    1.6257 H         1 <0>         0.1274
     49 H19        -3.0749    3.7028   -0.4115 H         1 <0>         0.1289
     50 H20        -5.3974    4.7230   -0.3819 H         1 <0>         0.1163
     51 H21        -6.1346    3.0399   -0.2237 H         1 <0>         0.1041
     52 H22        -4.1370    4.3752    1.7917 H         1 <0>         0.1335
     53 H23        -3.1867    2.3631    3.3350 H         1 <0>         0.1360
     54 H24        -3.9027    0.5805    4.8326 H         1 <0>         0.1389
     55 H25        -5.6397   -1.0395    5.5338 H         1 <0>         0.1407
     56 H26        -9.3600   -1.1673    3.4077 H         1 <0>         0.1362
     57 H27        -8.6232    0.6116    1.9248 H         1 <0>         0.1487
     58 H28        -6.8880    2.2307    1.2389 H         1 <0>         0.1402
     59 H29        -9.8002   -2.4858    4.5717 H         1 <0>         0.4452
     60 H30        -6.3402   -2.3678    6.5488 H         1 <0>         0.4421
     61 H31        -7.5327   -3.4589    7.0070 H         1 <0>         0.4353
     62 H32        -9.5347   -3.5272    5.8631 H         1 <0>         0.4351
     63 H33        -0.2593   -2.8578   -0.5675 H         1 <0>         0.4304
@<TRIPOS>BOND
     1    1    2 1
     2    1   31 1
     3    1   32 1
     4    1   33 1
     5    2    3 1
     6    2    4 1
     7    2   34 1
     8    3   35 1
     9    3   36 1
    10    3   37 1
    11    4   13 1
    12    4    5 1
    13    4   38 1
    14    5   10 ar
    15    5    6 ar
    16    6    7 ar
    17    6   39 1
    18    7    8 ar
    19    7   15 1
    20    8    9 ar
    21    8   40 1
    22    9   10 ar
    23    9   41 1
    24   10   11 1
    25   11   12 1
    26   11   42 1
    27   11   43 1
    28   12   13 1
    29   12   44 1
    30   12   45 1
    31   13   14 1
    32   13   63 1
    33   14   46 1
    34   14   47 1
    35   14   48 1
    36   15   17 1
    37   15   16 1
    38   15   49 1
    39   16   17 1
    40   16   50 1
    41   16   51 1
    42   17   18 1
    43   17   52 1
    44   18   27 ar
    45   18   19 ar
    46   19   20 ar
    47   19   53 1
    48   20   21 ar
    49   20   54 1
    50   21   26 ar
    51   21   22 ar
    52   22   23 ar
    53   22   55 1
    54   23   24 ar
    55   23   28 1
    56   24   25 ar
    57   24   56 1
    58   25   26 ar
    59   25   57 1
    60   26   27 ar
    61   27   58 1
    62   28   29 2
    63   28   30 1
    64   29   59 1
    65   29   62 1
    66   30   60 1
    67   30   61 1
@<TRIPOS>MOLECULE
CHEMBL185515__4
   63    67     0     0     0
SMALL
USER_CHARGES

@<TRIPOS>ATOM
      1 C1         -0.6060   -0.3932   -1.7470 C.3       1 <0>        -0.1663
      2 C2         -1.6280   -0.7106   -0.6536 C.3       1 <0>        -0.1120
      3 C3         -1.7232    0.4708    0.3139 C.3       1 <0>        -0.1634
      4 C4         -2.9964   -0.9592   -1.2911 C.3       1 <0>         0.0788
      5 C5         -3.1156   -0.1373   -2.5473 C.ar      1 <0>        -0.1154
      6 C6         -2.6299    1.1619   -2.5382 C.ar      1 <0>        -0.0889
      7 C7         -2.7228    1.9491   -3.6682 C.ar      1 <0>        -0.0385
      8 C8         -3.3029    1.4414   -4.8160 C.ar      1 <0>        -0.0921
      9 C9         -3.7856    0.1480   -4.8272 C.ar      1 <0>        -0.1017
     10 C10        -3.6915   -0.6435   -3.6931 C.ar      1 <0>        -0.0919
     11 C11        -4.2237   -2.0527   -3.7486 C.3       1 <0>        -0.1048
     12 C12        -4.3919   -2.5987   -2.3301 C.3       1 <0>        -0.0050
     13 N1         -3.1364   -2.3865   -1.5937 N.4       1 <0>        -0.3823
     14 C13        -3.1653   -3.1540   -0.3415 C.3       1 <0>        -0.0526
     15 C14        -2.1932    3.3599   -3.6507 C.3       1 <0>        -0.1092
     16 C15        -2.3278    4.1809   -4.9348 C.3       1 <0>        -0.1610
     17 C16        -0.9564    3.6607   -4.4996 C.3       1 <0>        -0.1179
     18 C17        -0.3609    2.5236   -5.2891 C.ar      1 <0>        -0.0043
     19 C18        -0.9735    2.1149   -6.4723 C.ar      1 <0>        -0.1022
     20 C19        -0.4611    1.0915   -7.2086 C.ar      1 <0>        -0.0885
     21 C20         0.7036    0.4350   -6.7721 C.ar      1 <0>        -0.0687
     22 C21         1.2585   -0.6234   -7.5074 C.ar      1 <0>        -0.0124
     23 C22         2.4060   -1.2447   -7.0458 C.ar      1 <0>        -0.1535
     24 C23         3.0149   -0.8231   -5.8507 C.ar      1 <0>        -0.0926
     25 C24         2.4924    0.1990   -5.1262 C.ar      1 <0>        -0.0821
     26 C25         1.3269    0.8512   -5.5684 C.ar      1 <0>        -0.0060
     27 C26         0.7704    1.9149   -4.8385 C.ar      1 <0>        -0.1105
     28 C27         2.9961   -2.3614   -7.8157 C.cat     1 <0>         0.5974
     29 N2          4.1001   -2.9629   -7.3764 N.pl3     1 <0>        -0.7597
     30 N3          2.4234   -2.7653   -8.9481 N.pl3     1 <0>        -0.7639
     31 H1          0.4015   -0.5119   -1.3482 H         1 <0>         0.0721
     32 H2         -0.7474   -1.0751   -2.5856 H         1 <0>         0.0521
     33 H3         -0.7438    0.6334   -2.0863 H         1 <0>         0.0847
     34 H4         -1.3134   -1.6012   -0.1096 H         1 <0>         0.0958
     35 H5         -2.2547    1.2922   -0.1667 H         1 <0>         0.0738
     36 H6         -2.2626    0.1640    1.2100 H         1 <0>         0.0719
     37 H7         -0.7202    0.7980    0.5878 H         1 <0>         0.0816
     38 H8         -3.7780   -0.6617   -0.5921 H         1 <0>         0.1450
     39 H9         -2.1769    1.5597   -1.6422 H         1 <0>         0.1466
     40 H10        -3.3785    2.0552   -5.7014 H         1 <0>         0.1337
     41 H11        -4.2391   -0.2487   -5.7235 H         1 <0>         0.1334
     42 H12        -5.1890   -2.0559   -4.2549 H         1 <0>         0.1239
     43 H13        -3.5248   -2.6827   -4.2989 H         1 <0>         0.0991
     44 H14        -5.2036   -2.0715   -1.8289 H         1 <0>         0.1341
     45 H15        -4.6156   -3.6647   -2.3724 H         1 <0>         0.1390
     46 H16        -3.9661   -2.7792    0.2960 H         1 <0>         0.1266
     47 H17        -3.3407   -4.2065   -0.5643 H         1 <0>         0.1290
     48 H18        -2.2105   -3.0458    0.1731 H         1 <0>         0.1263
     49 H19        -2.2935    3.8880   -2.7025 H         1 <0>         0.1286
     50 H20        -2.7994    3.7006   -5.7921 H         1 <0>         0.1053
     51 H21        -2.5168    5.2494   -4.8315 H         1 <0>         0.1166
     52 H22        -0.2431    4.3870   -4.1099 H         1 <0>         0.1323
     53 H23        -1.8679    2.6175   -6.8096 H         1 <0>         0.1367
     54 H24        -0.9466    0.7848   -8.1233 H         1 <0>         0.1399
     55 H25         0.7939   -0.9508   -8.4257 H         1 <0>         0.1412
     56 H26         3.9097   -1.3190   -5.5045 H         1 <0>         0.1353
     57 H27         2.9713    0.5113   -4.2099 H         1 <0>         0.1480
     58 H28         1.2360    2.2459   -3.9220 H         1 <0>         0.1400
     59 H29         4.5172   -2.6687   -6.5515 H         1 <0>         0.4447
     60 H30         1.6193   -2.3272   -9.2681 H         1 <0>         0.4427
     61 H31         2.8103   -3.4976   -9.4530 H         1 <0>         0.4354
     62 H32         4.4871   -3.6952   -7.8812 H         1 <0>         0.4349
     63 H33        -2.3578   -2.6898   -2.1593 H         1 <0>         0.4213
@<TRIPOS>BOND
     1    1    2 1
     2    1   31 1
     3    1   32 1
     4    1   33 1
     5    2    3 1
     6    2    4 1
     7    2   34 1
     8    3   35 1
     9    3   36 1
    10    3   37 1
    11    4   13 1
    12    4    5 1
    13    4   38 1
    14    5   10 ar
    15    5    6 ar
    16    6    7 ar
    17    6   39 1
    18    7    8 ar
    19    7   15 1
    20    8    9 ar
    21    8   40 1
    22    9   10 ar
    23    9   41 1
    24   10   11 1
    25   11   12 1
    26   11   42 1
    27   11   43 1
    28   12   13 1
    29   12   44 1
    30   12   45 1
    31   13   14 1
    32   13   63 1
    33   14   46 1
    34   14   47 1
    35   14   48 1
    36   15   17 1
    37   15   16 1
    38   15   49 1
    39   16   17 1
    40   16   50 1
    41   16   51 1
    42   17   18 1
    43   17   52 1
    44   18   27 ar
    45   18   19 ar
    46   19   20 ar
    47   19   53 1
    48   20   21 ar
    49   20   54 1
    50   21   26 ar
    51   21   22 ar
    52   22   23 ar
    53   22   55 1
    54   23   24 ar
    55   23   28 1
    56   24   25 ar
    57   24   56 1
    58   25   26 ar
    59   25   57 1
    60   26   27 ar
    61   27   58 1
    62   28   29 2
    63   28   30 1
    64   29   59 1
    65   29   62 1
    66   30   60 1
    67   30   61 1
@<TRIPOS>MOLECULE
CHEMBL185515__5
   63    67     0     0     0
SMALL
USER_CHARGES

@<TRIPOS>ATOM
      1 C1          0.7339    0.0626   -1.3311 C.3       1 <0>        -0.1686
      2 C2         -0.0283    0.0376   -0.0047 C.3       1 <0>        -0.1127
      3 C3          0.0688    1.4097    0.6653 C.3       1 <0>        -0.1614
      4 C4         -1.4976   -0.2990   -0.2671 C.3       1 <0>         0.0803
      5 C5         -1.8900    0.2168   -1.6265 C.ar      1 <0>        -0.1172
      6 C6         -1.4291    1.4642   -2.0207 C.ar      1 <0>        -0.0894
      7 C7         -1.7687    1.9742   -3.2575 C.ar      1 <0>        -0.0448
      8 C8         -2.5725    1.2390   -4.1091 C.ar      1 <0>        -0.0931
      9 C9         -3.0309   -0.0034   -3.7188 C.ar      1 <0>        -0.0996
     10 C10        -2.6892   -0.5167   -2.4774 C.ar      1 <0>        -0.0887
     11 C11        -3.2040   -1.8800   -2.0919 C.3       1 <0>        -0.1077
     12 C12        -3.0614   -2.0794   -0.5824 C.3       1 <0>        -0.0040
     13 N1         -1.6812   -1.7513   -0.1941 N.4       1 <0>        -0.3835
     14 C13        -1.4349   -2.2095    1.1797 C.3       1 <0>        -0.0515
     15 C14        -1.2646    3.3304   -3.6789 C.3       1 <0>        -0.1055
     16 C15        -1.8347    3.9269   -4.9674 C.3       1 <0>        -0.1595
     17 C16        -0.3978    3.4021   -4.9377 C.3       1 <0>        -0.1133
     18 C17         0.7147    4.4184   -4.9594 C.ar      1 <0>        -0.0117
     19 C18         0.4113    5.7711   -4.8171 C.ar      1 <0>        -0.1077
     20 C19         1.3925    6.7140   -4.8323 C.ar      1 <0>        -0.0843
     21 C20         2.7333    6.3208   -4.9933 C.ar      1 <0>        -0.0697
     22 C21         3.7693    7.2668   -5.0129 C.ar      1 <0>        -0.0107
     23 C22         5.0766    6.8413   -5.1731 C.ar      1 <0>        -0.1527
     24 C23         5.3700    5.4736   -5.3154 C.ar      1 <0>        -0.0907
     25 C24         4.3809    4.5441   -5.2988 C.ar      1 <0>        -0.0822
     26 C25         3.0417    4.9443   -5.1377 C.ar      1 <0>        -0.0073
     27 C26         2.0013    4.0005   -5.1121 C.ar      1 <0>        -0.1101
     28 C27         6.1736    7.8331   -5.1952 C.cat     1 <0>         0.5984
     29 N2          7.4334    7.4294   -5.3490 N.pl3     1 <0>        -0.7597
     30 N3          5.9016    9.1299   -5.0613 N.pl3     1 <0>        -0.7633
     31 H1          1.8048    0.0053   -1.1359 H         1 <0>         0.0724
     32 H2          0.4298   -0.7880   -1.9410 H         1 <0>         0.0564
     33 H3          0.5103    0.9884   -1.8612 H         1 <0>         0.0833
     34 H4          0.4062   -0.7179    0.6499 H         1 <0>         0.0966
     35 H5         -0.5835    2.1135    0.1482 H         1 <0>         0.0723
     36 H6         -0.2390    1.3276    1.7077 H         1 <0>         0.0711
     37 H7          1.0979    1.7655    0.6172 H         1 <0>         0.0793
     38 H8         -2.1170    0.1801    0.4911 H         1 <0>         0.1440
     39 H9         -0.8016    2.0396   -1.3563 H         1 <0>         0.1448
     40 H10        -2.8413    1.6357   -5.0769 H         1 <0>         0.1364
     41 H11        -3.6590   -0.5778   -4.3837 H         1 <0>         0.1368
     42 H12        -4.2545   -1.9629   -2.3708 H         1 <0>         0.1250
     43 H13        -2.6299   -2.6452   -2.6144 H         1 <0>         0.1040
     44 H14        -3.7549   -1.4211   -0.0593 H         1 <0>         0.1328
     45 H15        -3.2761   -3.1175   -0.3286 H         1 <0>         0.1399
     46 H16        -2.0606   -1.6429    1.8693 H         1 <0>         0.1250
     47 H17        -1.6760   -3.2697    1.2579 H         1 <0>         0.1297
     48 H18        -0.3855   -2.0560    1.4313 H         1 <0>         0.1257
     49 H19        -1.0300    4.0180   -2.8664 H         1 <0>         0.1210
     50 H20        -2.5743    3.3384   -5.5103 H         1 <0>         0.1111
     51 H21        -1.9753    5.0073   -5.0027 H         1 <0>         0.1113
     52 H22        -0.1921    2.4683   -5.4610 H         1 <0>         0.1236
     53 H23        -0.6175    6.0756   -4.6932 H         1 <0>         0.1387
     54 H24         1.1429    7.7589   -4.7216 H         1 <0>         0.1420
     55 H25         3.5485    8.3184   -4.9043 H         1 <0>         0.1428
     56 H26         6.3955    5.1585   -5.4399 H         1 <0>         0.1362
     57 H27         4.6219    3.4972   -5.4097 H         1 <0>         0.1484
     58 H28         2.2210    2.9483   -5.2168 H         1 <0>         0.1395
     59 H29         7.6315    6.4849   -5.4466 H         1 <0>         0.4446
     60 H30         4.9841    9.4240   -4.9493 H         1 <0>         0.4430
     61 H31         6.6210    9.7804   -5.0758 H         1 <0>         0.4352
     62 H32         8.1528    8.0799   -5.3635 H         1 <0>         0.4346
     63 H33        -1.0363   -2.2053   -0.8235 H         1 <0>         0.4243
@<TRIPOS>BOND
     1    1    2 1
     2    1   31 1
     3    1   32 1
     4    1   33 1
     5    2    3 1
     6    2    4 1
     7    2   34 1
     8    3   35 1
     9    3   36 1
    10    3   37 1
    11    4   13 1
    12    4    5 1
    13    4   38 1
    14    5   10 ar
    15    5    6 ar
    16    6    7 ar
    17    6   39 1
    18    7    8 ar
    19    7   15 1
    20    8    9 ar
    21    8   40 1
    22    9   10 ar
    23    9   41 1
    24   10   11 1
    25   11   12 1
    26   11   42 1
    27   11   43 1
    28   12   13 1
    29   12   44 1
    30   12   45 1
    31   13   14 1
    32   13   63 1
    33   14   46 1
    34   14   47 1
    35   14   48 1
    36   15   17 1
    37   15   16 1
    38   15   49 1
    39   16   17 1
    40   16   50 1
    41   16   51 1
    42   17   18 1
    43   17   52 1
    44   18   27 ar
    45   18   19 ar
    46   19   20 ar
    47   19   53 1
    48   20   21 ar
    49   20   54 1
    50   21   26 ar
    51   21   22 ar
    52   22   23 ar
    53   22   55 1
    54   23   24 ar
    55   23   28 1
    56   24   25 ar
    57   24   56 1
    58   25   26 ar
    59   25   57 1
    60   26   27 ar
    61   27   58 1
    62   28   29 2
    63   28   30 1
    64   29   59 1
    65   29   62 1
    66   30   60 1
    67   30   61 1
@<TRIPOS>MOLECULE
CHEMBL185515__6
   63    67     0     0     0
SMALL
USER_CHARGES

@<TRIPOS>ATOM
      1 C1          0.7340    0.0626   -1.3311 C.3       1 <0>        -0.1695
      2 C2         -0.0283    0.0376   -0.0047 C.3       1 <0>        -0.1132
      3 C3          0.0688    1.4097    0.6653 C.3       1 <0>        -0.1610
      4 C4         -1.4976   -0.2990   -0.2672 C.3       1 <0>         0.0811
      5 C5         -1.8900    0.2168   -1.6265 C.ar      1 <0>        -0.1174
      6 C6         -1.4291    1.4642   -2.0207 C.ar      1 <0>        -0.0892
      7 C7         -1.7687    1.9742   -3.2576 C.ar      1 <0>        -0.0450
      8 C8         -2.5724    1.2390   -4.1091 C.ar      1 <0>        -0.0930
      9 C9         -3.0309   -0.0034   -3.7189 C.ar      1 <0>        -0.0997
     10 C10        -2.6892   -0.5167   -2.4774 C.ar      1 <0>        -0.0887
     11 C11        -3.2040   -1.8800   -2.0919 C.3       1 <0>        -0.1080
     12 C12        -3.0614   -2.0794   -0.5825 C.3       1 <0>        -0.0035
     13 N1         -1.6812   -1.7513   -0.1941 N.4       1 <0>        -0.3839
     14 C13        -1.4350   -2.2095    1.1797 C.3       1 <0>        -0.0514
     15 C14        -1.2646    3.3304   -3.6790 C.3       1 <0>        -0.1054
     16 C15        -1.5041    3.7537   -5.1296 C.3       1 <0>        -0.1598
     17 C16        -2.3072    4.4029   -4.0008 C.3       1 <0>        -0.1129
     18 C17        -1.9740    5.8277   -3.6401 C.ar      1 <0>        -0.0124
     19 C18        -0.8556    6.4355   -4.2074 C.ar      1 <0>        -0.1075
     20 C19        -0.5272    7.7206   -3.9028 C.ar      1 <0>        -0.0847
     21 C20        -1.3263    8.4486   -3.0030 C.ar      1 <0>        -0.0696
     22 C21        -1.0165    9.7754   -2.6675 C.ar      1 <0>        -0.0110
     23 C22        -1.8271   10.4596   -1.7784 C.ar      1 <0>        -0.1526
     24 C23        -2.9530    9.8354   -1.2129 C.ar      1 <0>        -0.0908
     25 C24        -3.2682    8.5527   -1.5256 C.ar      1 <0>        -0.0819
     26 C25        -2.4644    7.8300   -2.4262 C.ar      1 <0>        -0.0075
     27 C26        -2.7733    6.5031   -2.7693 C.ar      1 <0>        -0.1095
     28 C27        -1.5062   11.8583   -1.4199 C.cat     1 <0>         0.5985
     29 N2         -2.2827   12.5215   -0.5650 N.pl3     1 <0>        -0.7597
     30 N3         -0.4409   12.4544   -1.9522 N.pl3     1 <0>        -0.7634
     31 H1          1.8048    0.0053   -1.1358 H         1 <0>         0.0746
     32 H2          0.4298   -0.7880   -1.9410 H         1 <0>         0.0570
     33 H3          0.5103    0.9884   -1.8612 H         1 <0>         0.0825
     34 H4          0.4062   -0.7179    0.6499 H         1 <0>         0.0971
     35 H5         -0.5835    2.1135    0.1482 H         1 <0>         0.0713
     36 H6         -0.2390    1.3276    1.7077 H         1 <0>         0.0701
     37 H7          1.0979    1.7655    0.6172 H         1 <0>         0.0805
     38 H8         -2.1170    0.1801    0.4910 H         1 <0>         0.1428
     39 H9         -0.8015    2.0396   -1.3563 H         1 <0>         0.1448
     40 H10        -2.8412    1.6357   -5.0770 H         1 <0>         0.1363
     41 H11        -3.6589   -0.5778   -4.3837 H         1 <0>         0.1368
     42 H12        -4.2544   -1.9629   -2.3708 H         1 <0>         0.1246
     43 H13        -2.6298   -2.6452   -2.6144 H         1 <0>         0.1046
     44 H14        -3.7550   -1.4211   -0.0593 H         1 <0>         0.1319
     45 H15        -3.2761   -3.1175   -0.3286 H         1 <0>         0.1398
     46 H16        -2.0606   -1.6428    1.8693 H         1 <0>         0.1244
     47 H17        -1.6760   -3.2696    1.2579 H         1 <0>         0.1298
     48 H18        -0.3856   -2.0560    1.4313 H         1 <0>         0.1262
     49 H19        -0.3378    3.6553   -3.2060 H         1 <0>         0.1207
     50 H20        -0.7347    4.3570   -5.6114 H         1 <0>         0.1112
     51 H21        -2.0262    3.0512   -5.7792 H         1 <0>         0.1110
     52 H22        -3.3577    4.1276   -3.9077 H         1 <0>         0.1239
     53 H23        -0.2404    5.8786   -4.8986 H         1 <0>         0.1386
     54 H24         0.3428    8.1789   -4.3493 H         1 <0>         0.1419
     55 H25        -0.1525   10.2586   -3.0993 H         1 <0>         0.1428
     56 H26        -3.5747   10.3835   -0.5205 H         1 <0>         0.1363
     57 H27        -4.1360    8.0867   -1.0828 H         1 <0>         0.1487
     58 H28        -3.6391    6.0198   -2.3414 H         1 <0>         0.1398
     59 H29        -3.0586   12.0873   -0.1773 H         1 <0>         0.4446
     60 H30         0.1246   11.9713   -2.5749 H         1 <0>         0.4430
     61 H31        -0.2304   13.3717   -1.7171 H         1 <0>         0.4351
     62 H32        -2.0722   13.4387   -0.3299 H         1 <0>         0.4346
     63 H33        -1.0363   -2.2053   -0.8236 H         1 <0>         0.4253
@<TRIPOS>BOND
     1    1    2 1
     2    1   31 1
     3    1   32 1
     4    1   33 1
     5    2    3 1
     6    2    4 1
     7    2   34 1
     8    3   35 1
     9    3   36 1
    10    3   37 1
    11    4   13 1
    12    4    5 1
    13    4   38 1
    14    5   10 ar
    15    5    6 ar
    16    6    7 ar
    17    6   39 1
    18    7    8 ar
    19    7   15 1
    20    8    9 ar
    21    8   40 1
    22    9   10 ar
    23    9   41 1
    24   10   11 1
    25   11   12 1
    26   11   42 1
    27   11   43 1
    28   12   13 1
    29   12   44 1
    30   12   45 1
    31   13   14 1
    32   13   63 1
    33   14   46 1
    34   14   47 1
    35   14   48 1
    36   15   17 1
    37   15   16 1
    38   15   49 1
    39   16   17 1
    40   16   50 1
    41   16   51 1
    42   17   18 1
    43   17   52 1
    44   18   27 ar
    45   18   19 ar
    46   19   20 ar
    47   19   53 1
    48   20   21 ar
    49   20   54 1
    50   21   26 ar
    51   21   22 ar
    52   22   23 ar
    53   22   55 1
    54   23   24 ar
    55   23   28 1
    56   24   25 ar
    57   24   56 1
    58   25   26 ar
    59   25   57 1
    60   26   27 ar
    61   27   58 1
    62   28   29 2
    63   28   30 1
    64   29   59 1
    65   29   62 1
    66   30   60 1
    67   30   61 1
@<TRIPOS>MOLECULE
CHEMBL185515__7
   63    67     0     0     0
SMALL
USER_CHARGES

@<TRIPOS>ATOM
      1 C1         -0.4264    0.7770   -0.5735 C.3       1 <0>        -0.1700
      2 C2         -1.5234    0.7201    0.4915 C.3       1 <0>        -0.1135
      3 C3         -1.9128    2.1425    0.8991 C.3       1 <0>        -0.1619
      4 C4         -2.7477   -0.0013   -0.0754 C.3       1 <0>         0.0816
      5 C5         -2.8295    0.2496   -1.5581 C.ar      1 <0>        -0.1165
      6 C6         -2.5488    1.5228   -2.0316 C.ar      1 <0>        -0.0883
      7 C7         -2.6154    1.7945   -3.3832 C.ar      1 <0>        -0.0391
      8 C8         -2.9636    0.7935   -4.2710 C.ar      1 <0>        -0.0889
      9 C9         -3.2419   -0.4747   -3.8016 C.ar      1 <0>        -0.1027
     10 C10        -3.1740   -0.7486   -2.4445 C.ar      1 <0>        -0.0913
     11 C11        -3.4779   -2.1477   -1.9730 C.3       1 <0>        -0.1066
     12 C12        -3.7398   -2.1408   -0.4664 C.3       1 <0>        -0.0022
     13 N1         -2.6332   -1.4365    0.1990 N.4       1 <0>        -0.3842
     14 C13        -2.7043   -1.6671    1.6481 C.3       1 <0>        -0.0516
     15 C14        -2.3096    3.1803   -3.8903 C.3       1 <0>        -0.1095
     16 C15        -2.6660    3.4950   -5.3445 C.3       1 <0>        -0.1619
     17 C16        -3.4950    4.0944   -4.2068 C.3       1 <0>        -0.1173
     18 C17        -4.8791    3.5400   -3.9875 C.ar      1 <0>        -0.0056
     19 C18        -5.5631    3.8472   -2.8128 C.ar      1 <0>        -0.0946
     20 C19        -6.8142    3.3627   -2.5841 C.ar      1 <0>        -0.0916
     21 C20        -7.4286    2.5403   -3.5455 C.ar      1 <0>        -0.0690
     22 C21        -8.7175    2.0246   -3.3417 C.ar      1 <0>        -0.0138
     23 C22        -9.2893    1.2190   -4.3112 C.ar      1 <0>        -0.1527
     24 C23        -8.5891    0.9165   -5.4924 C.ar      1 <0>        -0.0920
     25 C24        -7.3415    1.4064   -5.7068 C.ar      1 <0>        -0.0814
     26 C25        -6.7326    2.2283   -4.7408 C.ar      1 <0>        -0.0049
     27 C26        -5.4443    2.7514   -4.9424 C.ar      1 <0>        -0.1146
     28 C27       -10.6475    0.6715   -4.1028 C.cat     1 <0>         0.5975
     29 N2        -11.2026   -0.1042   -5.0322 N.pl3     1 <0>        -0.7590
     30 N3        -11.3152    0.9543   -2.9857 N.pl3     1 <0>        -0.7646
     31 H1          0.5229    1.0349   -0.1039 H         1 <0>         0.0766
     32 H2         -0.3397   -0.1955   -1.0581 H         1 <0>         0.0558
     33 H3         -0.6809    1.5322   -1.3172 H         1 <0>         0.0830
     34 H4         -1.1552    0.1801    1.3639 H         1 <0>         0.0971
     35 H5         -2.4452    2.6228    0.0781 H         1 <0>         0.0726
     36 H6         -2.5571    2.1052    1.7775 H         1 <0>         0.0694
     37 H7         -1.0136    2.7128    1.1319 H         1 <0>         0.0830
     38 H8         -3.6468    0.3857    0.4041 H         1 <0>         0.1411
     39 H9         -2.2771    2.3057   -1.3390 H         1 <0>         0.1474
     40 H10        -3.0181    1.0032   -5.3291 H         1 <0>         0.1330
     41 H11        -3.5142   -1.2567   -4.4949 H         1 <0>         0.1329
     42 H12        -4.3602   -2.5216   -2.4925 H         1 <0>         0.1201
     43 H13        -2.6288   -2.7958   -2.1903 H         1 <0>         0.1044
     44 H14        -4.6779   -1.6255   -0.2604 H         1 <0>         0.1286
     45 H15        -3.7942   -3.1659   -0.0998 H         1 <0>         0.1384
     46 H16        -3.6057   -1.2013    2.0463 H         1 <0>         0.1236
     47 H17        -2.7321   -2.7389    1.8444 H         1 <0>         0.1295
     48 H18        -1.8279   -1.2322    2.1286 H         1 <0>         0.1278
     49 H19        -1.4123    3.6436   -3.4801 H         1 <0>         0.1291
     50 H20        -2.0031    4.1655   -5.8914 H         1 <0>         0.1158
     51 H21        -3.1218    2.6998   -5.9345 H         1 <0>         0.1042
     52 H22        -3.3775    5.1591   -4.0052 H         1 <0>         0.1326
     53 H23        -5.0935    4.4785   -2.0730 H         1 <0>         0.1363
     54 H24        -7.3324    3.6083   -1.6689 H         1 <0>         0.1392
     55 H25        -9.2588    2.2541   -2.4358 H         1 <0>         0.1408
     56 H26        -9.0497    0.2860   -6.2385 H         1 <0>         0.1359
     57 H27        -6.8160    1.1650   -6.6189 H         1 <0>         0.1483
     58 H28        -4.9033    2.5259   -5.8496 H         1 <0>         0.1397
     59 H29       -10.7163   -0.3101   -5.8458 H         1 <0>         0.4450
     60 H30       -10.9109    1.5193   -2.3088 H         1 <0>         0.4423
     61 H31       -12.2059    0.5953   -2.8490 H         1 <0>         0.4352
     62 H32       -12.0933   -0.4632   -4.8955 H         1 <0>         0.4349
     63 H33        -1.7529   -1.7789   -0.1559 H         1 <0>         0.4263
@<TRIPOS>BOND
     1    1    2 1
     2    1   31 1
     3    1   32 1
     4    1   33 1
     5    2    3 1
     6    2    4 1
     7    2   34 1
     8    3   35 1
     9    3   36 1
    10    3   37 1
    11    4   13 1
    12    4    5 1
    13    4   38 1
    14    5   10 ar
    15    5    6 ar
    16    6    7 ar
    17    6   39 1
    18    7    8 ar
    19    7   15 1
    20    8    9 ar
    21    8   40 1
    22    9   10 ar
    23    9   41 1
    24   10   11 1
    25   11   12 1
    26   11   42 1
    27   11   43 1
    28   12   13 1
    29   12   44 1
    30   12   45 1
    31   13   14 1
    32   13   63 1
    33   14   46 1
    34   14   47 1
    35   14   48 1
    36   15   17 1
    37   15   16 1
    38   15   49 1
    39   16   17 1
    40   16   50 1
    41   16   51 1
    42   17   18 1
    43   17   52 1
    44   18   27 ar
    45   18   19 ar
    46   19   20 ar
    47   19   53 1
    48   20   21 ar
    49   20   54 1
    50   21   26 ar
    51   21   22 ar
    52   22   23 ar
    53   22   55 1
    54   23   24 ar
    55   23   28 1
    56   24   25 ar
    57   24   56 1
    58   25   26 ar
    59   25   57 1
    60   26   27 ar
    61   27   58 1
    62   28   29 2
    63   28   30 1
    64   29   59 1
    65   29   62 1
    66   30   60 1
    67   30   61 1
@<TRIPOS>MOLECULE
CHEMBL432422
   37    40     0     0     0
SMALL
USER_CHARGES

@<TRIPOS>ATOM
      1 C1         -0.0747    1.3376    0.0941 C.ar      1 <0>        -0.0810
      2 C2          1.0716    2.0700    0.0608 C.ar      1 <0>        -0.1103
      3 C3          2.3128    1.4191    0.0181 C.ar      1 <0>        -0.0022
      4 C4          2.3645    0.0021    0.0100 C.ar      1 <0>        -0.1166
      5 C5          1.1797   -0.7339    0.0445 C.ar      1 <0>        -0.0555
      6 C6         -0.0335   -0.0646    0.0864 C.ar      1 <0>        -0.0492
      7 C7         -1.2986   -0.8375    0.1233 C.ar      1 <0>        -0.0339
      8 C8         -1.2658   -2.2311    0.1216 C.ar      1 <0>        -0.0988
      9 C9         -2.4434   -2.9493    0.1560 C.ar      1 <0>        -0.0950
     10 C10        -3.6623   -2.2888    0.1923 C.ar      1 <0>         0.0344
     11 C11        -3.7010   -0.8954    0.1940 C.ar      1 <0>         0.0371
     12 C12        -2.5225   -0.1718    0.1655 C.ar      1 <0>        -0.0923
     13 O1         -5.0058   -0.4955    0.2325 O.3       1 <0>        -0.3072
     14 C13        -5.7731   -1.6494   -0.1584 C.3       1 <0>         0.2129
     15 O2         -4.9431   -2.7599    0.2299 O.3       1 <0>        -0.3072
     16 C14         3.6783   -0.6404   -0.0345 C.ar      1 <0>         0.4123
     17 N1          4.7645    0.1214   -0.0653 N.ar      1 <0>        -0.5118
     18 C15         4.7049    1.4447   -0.0573 C.ar      1 <0>         0.1233
     19 C16         3.5298    2.1292   -0.0170 C.ar      1 <0>        -0.1132
     20 Cl1         3.5293    3.8652   -0.0096 Cl        1 <0>        -0.0561
     21 N2          3.7845   -1.9955   -0.0436 N.2       1 <0>        -0.6290
     22 C17         3.7220   -2.6533   -1.1831 C.2       1 <0>         0.6848
     23 N3          3.6682   -1.9678   -2.3673 N.pl3     1 <0>        -0.8747
     24 N4          3.7108   -4.0226   -1.1834 N.pl3     1 <0>        -0.8326
     25 H1         -1.0287    1.8424    0.1315 H         1 <0>         0.1333
     26 H2          1.0255    3.1490    0.0669 H         1 <0>         0.1389
     27 H3          1.2076   -1.8135    0.0390 H         1 <0>         0.1371
     28 H4         -0.3184   -2.7487    0.0930 H         1 <0>         0.1405
     29 H5         -2.4158   -4.0289    0.1543 H         1 <0>         0.1398
     30 H6         -2.5507    0.9078    0.1717 H         1 <0>         0.1400
     31 H7         -6.7231   -1.6763    0.3752 H         1 <0>         0.1343
     32 H8         -5.9377   -1.6527   -1.2359 H         1 <0>         0.0866
     33 H9          5.6283    2.0041   -0.0839 H         1 <0>         0.1583
     34 H10         3.7538   -1.0016   -2.3728 H         1 <0>         0.4144
     35 H11         3.7489   -4.5081   -0.3445 H         1 <0>         0.4252
     36 H12         3.6648   -4.5070   -2.0225 H         1 <0>         0.4118
     37 H13         3.5446   -2.4485   -3.2007 H         1 <0>         0.4016
@<TRIPOS>BOND
     1    1    6 ar
     2    1    2 ar
     3    1   25 1
     4    2    3 ar
     5    2   26 1
     6    3   19 ar
     7    3    4 ar
     8    4    5 ar
     9    4   16 ar
    10    5    6 ar
    11    5   27 1
    12    6    7 1
    13    7   12 ar
    14    7    8 ar
    15    8    9 ar
    16    8   28 1
    17    9   10 ar
    18    9   29 1
    19   10   15 1
    20   10   11 ar
    21   11   12 ar
    22   11   13 1
    23   12   30 1
    24   13   14 1
    25   14   15 1
    26   14   31 1
    27   14   32 1
    28   16   17 ar
    29   16   21 1
    30   17   18 ar
    31   18   19 ar
    32   18   33 1
    33   19   20 1
    34   21   22 2
    35   22   23 1
    36   22   24 1
    37   23   34 1
    38   23   37 1
    39   24   35 1
    40   24   36 1
@<TRIPOS>MOLECULE
CHEMBL432422__1
   37    40     0     0     0
SMALL
USER_CHARGES

@<TRIPOS>ATOM
      1 C1         -0.0180    1.3982   -0.0092 C.ar      1 <0>        -0.0806
      2 C2          1.1398    2.1119   -0.0152 C.ar      1 <0>        -0.1039
      3 C3          2.3718    1.4417   -0.0255 C.ar      1 <0>         0.0105
      4 C4          2.4037    0.0235   -0.0296 C.ar      1 <0>        -0.1156
      5 C5          1.2027   -0.6935   -0.0233 C.ar      1 <0>        -0.0766
      6 C6          0.0014   -0.0050   -0.0131 C.ar      1 <0>        -0.0390
      7 C7         -1.2766   -0.7575   -0.0063 C.ar      1 <0>        -0.0364
      8 C8         -1.2662   -2.1514   -0.0044 C.ar      1 <0>        -0.1002
      9 C9         -2.4556   -2.8505    0.0015 C.ar      1 <0>        -0.0953
     10 C10        -3.6643   -2.1705    0.0059 C.ar      1 <0>         0.0359
     11 C11        -3.6806   -0.7767    0.0044 C.ar      1 <0>         0.0381
     12 C12        -2.4902   -0.0722    0.0039 C.ar      1 <0>        -0.0908
     13 O1         -4.9794   -0.3558    0.0092 O.3       1 <0>        -0.3068
     14 C13        -5.7550   -1.4981   -0.3990 C.3       1 <0>         0.2127
     15 O2         -4.9531   -2.6210    0.0120 O.3       1 <0>        -0.3069
     16 C14         3.6600   -0.6236   -0.0395 C.ar      1 <0>         0.4260
     17 N1          4.7659    0.0944   -0.0447 N.ar      1 <0>        -0.4502
     18 C15         4.7578    1.4210   -0.0411 C.ar      1 <0>         0.1425
     19 C16         3.5984    2.1354   -0.0316 C.ar      1 <0>        -0.1240
     20 Cl1         3.6310    3.8711   -0.0277 Cl        1 <0>        -0.0535
     21 N2          3.7295   -2.0102   -0.0433 N.pl3     1 <0>        -0.6326
     22 C17         4.9499   -2.6384   -0.1621 C.2       1 <0>         0.6046
     23 N3          6.0468   -1.9351   -0.1691 N.2       1 <0>        -0.7340
     24 N4          5.0104   -4.0076   -0.2731 N.pl3     1 <0>        -0.8976
     25 H1         -0.9645    1.9181    0.0033 H         1 <0>         0.1352
     26 H2          1.1106    3.1915   -0.0125 H         1 <0>         0.1415
     27 H3          1.2122   -1.7734   -0.0263 H         1 <0>         0.1312
     28 H4         -0.3268   -2.6842   -0.0078 H         1 <0>         0.1395
     29 H5         -2.4454   -3.9305    0.0023 H         1 <0>         0.1403
     30 H6         -2.5012    1.0077    0.0069 H         1 <0>         0.1410
     31 H7         -6.7185   -1.5086    0.1106 H         1 <0>         0.1347
     32 H8         -5.8925   -1.5010   -1.4803 H         1 <0>         0.0874
     33 H9          5.6991    1.9505   -0.0454 H         1 <0>         0.1643
     34 H10         2.9189   -2.5367    0.0377 H         1 <0>         0.4206
     35 H11         6.9060   -2.3775   -0.2527 H         1 <0>         0.3367
     36 H12         4.1929   -4.5252   -0.3411 H         1 <0>         0.3891
     37 H13         5.8706   -4.4558   -0.2836 H         1 <0>         0.4119
@<TRIPOS>BOND
     1    1    6 ar
     2    1    2 ar
     3    1   25 1
     4    2    3 ar
     5    2   26 1
     6    3   19 ar
     7    3    4 ar
     8    4    5 ar
     9    4   16 ar
    10    5    6 ar
    11    5   27 1
    12    6    7 1
    13    7   12 ar
    14    7    8 ar
    15    8    9 ar
    16    8   28 1
    17    9   10 ar
    18    9   29 1
    19   10   15 1
    20   10   11 ar
    21   11   12 ar
    22   11   13 1
    23   12   30 1
    24   13   14 1
    25   14   15 1
    26   14   31 1
    27   14   32 1
    28   16   17 ar
    29   16   21 1
    30   17   18 ar
    31   18   19 ar
    32   18   33 1
    33   19   20 1
    34   21   22 1
    35   21   34 1
    36   22   23 2
    37   22   24 1
    38   23   35 1
    39   24   36 1
    40   24   37 1
@<TRIPOS>MOLECULE
CHEMBL432422__2
   37    40     0     0     0
SMALL
USER_CHARGES

@<TRIPOS>ATOM
      1 C1         -0.0168    1.3976    0.0093 C.ar      1 <0>        -0.0723
      2 C2          1.1412    2.1112    0.0145 C.ar      1 <0>        -0.1062
      3 C3          2.3731    1.4408    0.0060 C.ar      1 <0>         0.0171
      4 C4          2.4049    0.0228   -0.0081 C.ar      1 <0>        -0.1181
      5 C5          1.2037   -0.6941   -0.0134 C.ar      1 <0>        -0.0739
      6 C6          0.0026   -0.0055   -0.0047 C.ar      1 <0>        -0.0330
      7 C7         -1.2756   -0.7579   -0.0101 C.ar      1 <0>        -0.0419
      8 C8         -1.2653   -2.1517   -0.0182 C.ar      1 <0>        -0.0976
      9 C9         -2.4548   -2.8508   -0.0237 C.ar      1 <0>        -0.0952
     10 C10        -3.6635   -2.1706   -0.0208 C.ar      1 <0>         0.0395
     11 C11        -3.6796   -0.7768   -0.0124 C.ar      1 <0>         0.0379
     12 C12        -2.4892   -0.0725   -0.0015 C.ar      1 <0>        -0.0893
     13 O1         -4.9783   -0.3558   -0.0114 O.3       1 <0>        -0.3064
     14 C13        -5.7519   -1.4950   -0.4320 C.3       1 <0>         0.2126
     15 O2         -4.9523   -2.6209   -0.0249 O.3       1 <0>        -0.3060
     16 C14         3.6612   -0.6245   -0.0160 C.ar      1 <0>         0.4340
     17 N1          4.7671    0.0934   -0.0102 N.ar      1 <0>        -0.5339
     18 C15         4.7591    1.4200    0.0030 C.ar      1 <0>         0.1448
     19 C16         3.5998    2.1344    0.0114 C.ar      1 <0>        -0.1185
     20 Cl1         3.6325    3.8700    0.0281 Cl        1 <0>        -0.0431
     21 N2          3.7306   -2.0110   -0.0294 N.pl3     1 <0>        -0.6698
     22 C17         4.9499   -2.6384   -0.1621 C.2       1 <0>         0.6364
     23 N3          5.0060   -3.9348   -0.2805 N.2       1 <0>        -0.8083
     24 N4          6.1076   -1.8967   -0.1694 N.pl3     1 <0>        -0.8364
     25 H1         -0.9633    1.9175    0.0204 H         1 <0>         0.1386
     26 H2          1.1121    3.1907    0.0249 H         1 <0>         0.1444
     27 H3          1.2132   -1.7740   -0.0241 H         1 <0>         0.1343
     28 H4         -0.3259   -2.6846   -0.0205 H         1 <0>         0.1398
     29 H5         -2.4447   -3.9307   -0.0306 H         1 <0>         0.1418
     30 H6         -2.5000    1.0074    0.0093 H         1 <0>         0.1412
     31 H7         -6.7181   -1.5091    0.0724 H         1 <0>         0.1355
     32 H8         -5.8836   -1.4901   -1.5140 H         1 <0>         0.0881
     33 H9          5.7005    1.9493    0.0076 H         1 <0>         0.1720
     34 H10         2.9205   -2.5379    0.0546 H         1 <0>         0.4247
     35 H11         6.0628   -0.9277   -0.1642 H         1 <0>         0.4212
     36 H12         6.9691   -2.3423   -0.1798 H         1 <0>         0.4055
     37 H13         4.1879   -4.4515   -0.3484 H         1 <0>         0.3405
@<TRIPOS>BOND
     1    1    6 ar
     2    1    2 ar
     3    1   25 1
     4    2    3 ar
     5    2   26 1
     6    3   19 ar
     7    3    4 ar
     8    4    5 ar
     9    4   16 ar
    10    5    6 ar
    11    5   27 1
    12    6    7 1
    13    7   12 ar
    14    7    8 ar
    15    8    9 ar
    16    8   28 1
    17    9   10 ar
    18    9   29 1
    19   10   15 1
    20   10   11 ar
    21   11   12 ar
    22   11   13 1
    23   12   30 1
    24   13   14 1
    25   14   15 1
    26   14   31 1
    27   14   32 1
    28   16   17 ar
    29   16   21 1
    30   17   18 ar
    31   18   19 ar
    32   18   33 1
    33   19   20 1
    34   21   22 1
    35   21   34 1
    36   22   23 2
    37   22   24 1
    38   23   37 1
    39   24   35 1
    40   24   36 1
@<TRIPOS>MOLECULE
CHEMBL432422__3
   38    41     0     0     0
SMALL
USER_CHARGES

@<TRIPOS>ATOM
      1 C1          0.1073    1.3417    1.1379 C.ar      1 <0>        -0.0701
      2 C2          1.2859    1.9738    1.3855 C.ar      1 <0>        -0.0906
      3 C3          2.4962    1.2906    1.1979 C.ar      1 <0>         0.0015
      4 C4          2.4849   -0.0557    0.7511 C.ar      1 <0>        -0.0845
      5 C5          1.2629   -0.6893    0.5016 C.ar      1 <0>        -0.1037
      6 C6          0.0839    0.0100    0.6956 C.ar      1 <0>         0.0071
      7 C7         -1.2161   -0.6543    0.4334 C.ar      1 <0>        -0.0622
      8 C8         -1.2484   -1.9784   -0.0007 C.ar      1 <0>        -0.0918
      9 C9         -2.4581   -2.5956   -0.2443 C.ar      1 <0>        -0.0995
     10 C10        -3.6447   -1.9020   -0.0590 C.ar      1 <0>         0.0536
     11 C11        -3.6182   -0.5776    0.3748 C.ar      1 <0>         0.0410
     12 C12        -2.4076    0.0426    0.6261 C.ar      1 <0>        -0.0829
     13 O1         -4.9027   -0.1266    0.4776 O.3       1 <0>        -0.3031
     14 C13        -5.6973   -1.0522   -0.2871 C.3       1 <0>         0.2119
     15 O2         -4.9461   -2.2790   -0.2272 O.3       1 <0>        -0.3026
     16 C14         3.7200   -0.7181    0.5717 C.ar      1 <0>         0.3838
     17 N1          4.8467   -0.0802    0.8200 N.ar      1 <0>        -0.5204
     18 C15         4.8793    1.1783    1.2384 C.ar      1 <0>         0.1168
     19 C16         3.7428    1.9009    1.4410 C.ar      1 <0>        -0.0637
     20 Cl1         3.8285    3.5460    1.9887 Cl        1 <0>        -0.0102
     21 N2          3.7471   -2.0368    0.1357 N.pl3     1 <0>        -0.6231
     22 C17         4.9440   -2.6363   -0.1615 C.cat     1 <0>         0.7464
     23 N3          4.9853   -3.9372   -0.4431 N.pl3     1 <0>        -0.7895
     24 N4          6.0650   -1.9176   -0.1685 N.pl3     1 <0>        -0.7614
     25 H1         -0.8227    1.8699    1.2879 H         1 <0>         0.1484
     26 H2          1.2896    2.9990    1.7252 H         1 <0>         0.1532
     27 H3          1.2394   -1.7141    0.1614 H         1 <0>         0.1369
     28 H4         -0.3263   -2.5214   -0.1467 H         1 <0>         0.1370
     29 H5         -2.4811   -3.6217   -0.5805 H         1 <0>         0.1442
     30 H6         -2.3855    1.0673    0.9667 H         1 <0>         0.1435
     31 H7         -6.6789   -1.1817    0.1687 H         1 <0>         0.1403
     32 H8         -5.7945   -0.7126   -1.3182 H         1 <0>         0.0926
     33 H9          5.8360    1.6439    1.4240 H         1 <0>         0.1856
     34 H10         2.9192   -2.5336    0.0416 H         1 <0>         0.4501
     35 H11         5.8320   -4.3612   -0.6534 H         1 <0>         0.4453
     36 H12         6.0282   -0.9601   -0.0176 H         1 <0>         0.4480
     37 H13         6.9184   -2.3516   -0.3246 H         1 <0>         0.4317
     38 H14         4.1688   -4.4607   -0.4380 H         1 <0>         0.4404
@<TRIPOS>BOND
     1    1    6 ar
     2    1    2 ar
     3    1   25 1
     4    2    3 ar
     5    2   26 1
     6    3   19 ar
     7    3    4 ar
     8    4    5 ar
     9    4   16 ar
    10    5    6 ar
    11    5   27 1
    12    6    7 1
    13    7   12 ar
    14    7    8 ar
    15    8    9 ar
    16    8   28 1
    17    9   10 ar
    18    9   29 1
    19   10   15 1
    20   10   11 ar
    21   11   12 ar
    22   11   13 1
    23   12   30 1
    24   13   14 1
    25   14   15 1
    26   14   31 1
    27   14   32 1
    28   16   17 ar
    29   16   21 1
    30   17   18 ar
    31   18   19 ar
    32   18   33 1
    33   19   20 1
    34   21   22 1
    35   21   34 1
    36   22   23 2
    37   22   24 1
    38   23   35 1
    39   23   38 1
    40   24   36 1
    41   24   37 1
@<TRIPOS>MOLECULE
CHEMBL111512
   40    42     0     0     0
SMALL
USER_CHARGES

@<TRIPOS>ATOM
      1 C1         -0.1660    1.4912   -0.0824 C.3       1 <0>         0.0281
      2 O1         -0.1153    0.0631   -0.0805 O.3       1 <0>        -0.3137
      3 C2          0.4849   -0.5331   -1.1405 C.ar      1 <0>         0.1319
      4 C3          1.0204    0.2422   -2.1607 C.ar      1 <0>        -0.2234
      5 C4          1.6314   -0.3571   -3.2392 C.ar      1 <0>        -0.0394
      6 C5          1.7159   -1.7524   -3.3136 C.ar      1 <0>        -0.1670
      7 C6          1.1795   -2.5384   -2.2911 C.ar      1 <0>        -0.0290
      8 C7          0.5692   -1.9303   -1.2022 C.ar      1 <0>        -0.1099
      9 C8          0.0024   -2.7580   -0.1100 C.ar      1 <0>        -0.0194
     10 C9          0.3231   -2.4635    1.2240 C.ar      1 <0>        -0.0592
     11 C10        -0.1831   -3.2074    2.2442 C.ar      1 <0>        -0.1235
     12 C11        -1.0376   -4.2838    1.9641 C.ar      1 <0>        -0.0100
     13 C12        -1.3678   -4.5888    0.6192 C.ar      1 <0>        -0.1145
     14 C13        -0.8438   -3.8121   -0.4152 C.ar      1 <0>        -0.0627
     15 C14        -2.2623   -5.7184    0.3674 C.ar      1 <0>         0.4144
     16 N1         -2.7283   -6.4108    1.3995 N.ar      1 <0>        -0.5199
     17 C15        -2.4135   -6.1174    2.6520 C.ar      1 <0>         0.1128
     18 C16        -1.5897   -5.0859    2.9826 C.ar      1 <0>        -0.1102
     19 Cl1        -1.2209   -4.7608    4.6475 Cl        1 <0>        -0.0684
     20 N2         -2.6111   -6.0533   -0.9030 N.2       1 <0>        -0.6329
     21 C17        -1.8388   -6.8536   -1.6088 C.2       1 <0>         0.6880
     22 N3         -0.7478   -7.4414   -1.0262 N.pl3     1 <0>        -0.8735
     23 N4         -2.1268   -7.0976   -2.9251 N.pl3     1 <0>        -0.8308
     24 C18         2.3691   -2.3908   -4.4688 C.2       1 <0>         0.5240
     25 O2          2.8382   -1.7018   -5.3641 O.co2     1 <0>        -0.6884
     26 O3          2.4425   -3.6103   -4.5331 O.co2     1 <0>        -0.6893
     27 H1          0.8478    1.8907   -0.1077 H         1 <0>         0.0532
     28 H2         -0.7137    1.8342   -0.9601 H         1 <0>         0.0530
     29 H3         -0.6708    1.8380    0.8193 H         1 <0>         0.0943
     30 H4          0.9570    1.3190   -2.1081 H         1 <0>         0.1237
     31 H5          2.0461    0.2507   -4.0298 H         1 <0>         0.1310
     32 H6          1.2429   -3.6152   -2.3453 H         1 <0>         0.1329
     33 H7          0.9807   -1.6355    1.4436 H         1 <0>         0.1284
     34 H8          0.0725   -2.9703    3.2664 H         1 <0>         0.1324
     35 H9         -1.0921   -4.0328   -1.4429 H         1 <0>         0.1341
     36 H10        -2.8282   -6.7224    3.4447 H         1 <0>         0.1520
     37 H11        -0.5869   -7.3310   -0.0760 H         1 <0>         0.4130
     38 H12        -0.1360   -7.9684   -1.5636 H         1 <0>         0.4019
     39 H13        -2.8996   -6.6812   -3.3378 H         1 <0>         0.4238
     40 H14        -1.5581   -7.6869   -3.4448 H         1 <0>         0.4120
@<TRIPOS>BOND
     1    1    2 1
     2    1   27 1
     3    1   28 1
     4    1   29 1
     5    2    3 1
     6    3    8 ar
     7    3    4 ar
     8    4    5 ar
     9    4   30 1
    10    5    6 ar
    11    5   31 1
    12    6    7 ar
    13    6   24 1
    14    7    8 ar
    15    7   32 1
    16    8    9 1
    17    9   14 ar
    18    9   10 ar
    19   10   11 ar
    20   10   33 1
    21   11   12 ar
    22   11   34 1
    23   12   18 ar
    24   12   13 ar
    25   13   14 ar
    26   13   15 ar
    27   14   35 1
    28   15   16 ar
    29   15   20 1
    30   16   17 ar
    31   17   18 ar
    32   17   36 1
    33   18   19 1
    34   20   21 2
    35   21   22 1
    36   21   23 1
    37   22   37 1
    38   22   38 1
    39   23   39 1
    40   23   40 1
    41   24   25 2
    42   24   26 1
@<TRIPOS>MOLECULE
CHEMBL111512__1
   40    42     0     0     0
SMALL
USER_CHARGES

@<TRIPOS>ATOM
      1 C1          0.0142    1.4205   -0.0114 C.3       1 <0>         0.0278
      2 O1          0.0244   -0.0084   -0.0127 O.3       1 <0>        -0.3151
      3 C2          0.6281   -0.6189   -1.0626 C.ar      1 <0>         0.1336
      4 C3          1.2050    0.1434   -2.0700 C.ar      1 <0>        -0.2228
      5 C4          1.8192   -0.4705   -3.1384 C.ar      1 <0>        -0.0358
      6 C5          1.8661   -1.8674   -3.2149 C.ar      1 <0>        -0.1649
      7 C6          1.2883   -2.6403   -2.2050 C.ar      1 <0>        -0.0296
      8 C7          0.6740   -2.0177   -1.1267 C.ar      1 <0>        -0.1180
      9 C8          0.0628   -2.8316   -0.0480 C.ar      1 <0>        -0.0039
     10 C9          0.3661   -2.5489    1.2932 C.ar      1 <0>        -0.0490
     11 C10        -0.1808   -3.2799    2.3010 C.ar      1 <0>        -0.1202
     12 C11        -1.0600   -4.3314    2.0019 C.ar      1 <0>         0.0107
     13 C12        -1.3738   -4.6263    0.6504 C.ar      1 <0>        -0.1166
     14 C13        -0.8056   -3.8593   -0.3728 C.ar      1 <0>        -0.0811
     15 C14        -2.2627   -5.6906    0.3803 C.ar      1 <0>         0.4353
     16 N1         -2.7782   -6.3821    1.3779 N.ar      1 <0>        -0.5403
     17 C15        -2.4979   -6.1227    2.6481 C.ar      1 <0>         0.1340
     18 C16        -1.6527   -5.1174    3.0097 C.ar      1 <0>        -0.1155
     19 Cl1        -1.3121   -4.8098    4.6840 Cl        1 <0>        -0.0549
     20 N2         -2.5927   -6.0071   -0.9306 N.pl3     1 <0>        -0.6694
     21 C17        -3.3595   -7.1200   -1.1985 C.2       1 <0>         0.6367
     22 N3         -3.5813   -7.4769   -2.4318 N.2       1 <0>        -0.8125
     23 N4         -3.8907   -7.8540   -0.1643 N.pl3     1 <0>        -0.8386
     24 C18         2.5233   -2.5214   -4.3591 C.2       1 <0>         0.5222
     25 O2          3.0287   -1.8438   -5.2433 O.co2     1 <0>        -0.6871
     26 O3          2.5638   -3.7423   -4.4252 O.co2     1 <0>        -0.6866
     27 H1          1.0392    1.7912   -0.0160 H         1 <0>         0.0542
     28 H2         -0.5065    1.7809   -0.8987 H         1 <0>         0.0536
     29 H3         -0.4980    1.7794    0.8813 H         1 <0>         0.0951
     30 H4          1.1713    1.2215   -2.0154 H         1 <0>         0.1249
     31 H5          2.2656    0.1272   -3.9194 H         1 <0>         0.1323
     32 H6          1.3226   -3.7183   -2.2609 H         1 <0>         0.1359
     33 H7          1.0428   -1.7405    1.5276 H         1 <0>         0.1342
     34 H8          0.0614   -3.0520    3.3285 H         1 <0>         0.1382
     35 H9         -1.0393   -4.0697   -1.4060 H         1 <0>         0.1326
     36 H10        -2.9537   -6.7264    3.4189 H         1 <0>         0.1663
     37 H11        -3.1481   -7.0033   -3.1592 H         1 <0>         0.3431
     38 H12        -3.6590   -7.6383    0.7526 H         1 <0>         0.4206
     39 H13        -4.4970   -8.5876   -0.3515 H         1 <0>         0.4019
     40 H14        -2.2835   -5.4448   -1.6579 H         1 <0>         0.4285
@<TRIPOS>BOND
     1    1    2 1
     2    1   27 1
     3    1   28 1
     4    1   29 1
     5    2    3 1
     6    3    8 ar
     7    3    4 ar
     8    4    5 ar
     9    4   30 1
    10    5    6 ar
    11    5   31 1
    12    6    7 ar
    13    6   24 1
    14    7    8 ar
    15    7   32 1
    16    8    9 1
    17    9   14 ar
    18    9   10 ar
    19   10   11 ar
    20   10   33 1
    21   11   12 ar
    22   11   34 1
    23   12   18 ar
    24   12   13 ar
    25   13   14 ar
    26   13   15 ar
    27   14   35 1
    28   15   16 ar
    29   15   20 1
    30   16   17 ar
    31   17   18 ar
    32   17   36 1
    33   18   19 1
    34   20   21 1
    35   20   40 1
    36   21   22 2
    37   21   23 1
    38   22   37 1
    39   23   38 1
    40   23   39 1
    41   24   25 2
    42   24   26 1
@<TRIPOS>MOLECULE
CHEMBL111512__2
   40    42     0     0     0
SMALL
USER_CHARGES

@<TRIPOS>ATOM
      1 C1         -0.0173    1.4248    0.0099 C.3       1 <0>         0.0279
      2 O1          0.0021   -0.0041    0.0020 O.3       1 <0>        -0.3138
      3 C2          0.6045   -0.6058   -1.0535 C.ar      1 <0>         0.1327
      4 C3          1.1717    0.1647   -2.0602 C.ar      1 <0>        -0.2233
      5 C4          1.7847   -0.4403   -3.1343 C.ar      1 <0>        -0.0379
      6 C5          1.8401   -1.8366   -3.2174 C.ar      1 <0>        -0.1662
      7 C6          1.2722   -2.6177   -2.2083 C.ar      1 <0>        -0.0306
      8 C7          0.6591   -2.0041   -1.1242 C.ar      1 <0>        -0.1136
      9 C8          0.0583   -2.8268   -0.0464 C.ar      1 <0>        -0.0092
     10 C9          0.3662   -2.5482    1.2946 C.ar      1 <0>        -0.0572
     11 C10        -0.1711   -3.2873    2.3016 C.ar      1 <0>        -0.1181
     12 C11        -1.0451   -4.3430    2.0020 C.ar      1 <0>         0.0045
     13 C12        -1.3635   -4.6337    0.6506 C.ar      1 <0>        -0.1135
     14 C13        -0.8051   -3.8585   -0.3718 C.ar      1 <0>        -0.0853
     15 C14        -2.2468   -5.7025    0.3799 C.ar      1 <0>         0.4266
     16 N1         -2.7531   -6.4018    1.3768 N.ar      1 <0>        -0.4559
     17 C15        -2.4683   -6.1464    2.6468 C.ar      1 <0>         0.1317
     18 C16        -1.6278   -5.1374    3.0090 C.ar      1 <0>        -0.1215
     19 Cl1        -1.2812   -4.8353    4.6830 Cl        1 <0>        -0.0655
     20 N2         -2.5811   -6.0152   -0.9309 N.pl3     1 <0>        -0.6322
     21 C17        -3.4428   -7.0579   -1.1920 C.2       1 <0>         0.6093
     22 N3         -3.9441   -7.7507   -0.2088 N.2       1 <0>        -0.7406
     23 N4         -3.7739   -7.3676   -2.4901 N.pl3     1 <0>        -0.8978
     24 C18         2.4960   -2.4812   -4.3677 C.2       1 <0>         0.5227
     25 O2          2.9929   -1.7964   -5.2512 O.co2     1 <0>        -0.6880
     26 O3          2.5440   -3.7015   -4.4396 O.co2     1 <0>        -0.6879
     27 H1          1.0053    1.8021    0.0021 H         1 <0>         0.0536
     28 H2         -0.5445    1.7859   -0.8732 H         1 <0>         0.0530
     29 H3         -0.5275    1.7763    0.9067 H         1 <0>         0.0948
     30 H4          1.1315    1.2422   -2.0004 H         1 <0>         0.1240
     31 H5          2.2235    0.1637   -3.9147 H         1 <0>         0.1313
     32 H6          1.3131   -3.6952   -2.2693 H         1 <0>         0.1356
     33 H7          1.0389   -1.7366    1.5295 H         1 <0>         0.1307
     34 H8          0.0745   -3.0625    3.3290 H         1 <0>         0.1353
     35 H9         -1.0424   -4.0657   -1.4048 H         1 <0>         0.1293
     36 H10        -2.9166   -6.7565    3.4170 H         1 <0>         0.1585
     37 H11        -4.5508   -8.4849   -0.3927 H         1 <0>         0.3313
     38 H12        -3.4007   -6.8519   -3.2220 H         1 <0>         0.3916
     39 H13        -4.3806   -8.1018   -2.6739 H         1 <0>         0.4094
     40 H14        -2.2080   -5.4994   -1.6628 H         1 <0>         0.4244
@<TRIPOS>BOND
     1    1    2 1
     2    1   27 1
     3    1   28 1
     4    1   29 1
     5    2    3 1
     6    3    8 ar
     7    3    4 ar
     8    4    5 ar
     9    4   30 1
    10    5    6 ar
    11    5   31 1
    12    6    7 ar
    13    6   24 1
    14    7    8 ar
    15    7   32 1
    16    8    9 1
    17    9   14 ar
    18    9   10 ar
    19   10   11 ar
    20   10   33 1
    21   11   12 ar
    22   11   34 1
    23   12   18 ar
    24   12   13 ar
    25   13   14 ar
    26   13   15 ar
    27   14   35 1
    28   15   16 ar
    29   15   20 1
    30   16   17 ar
    31   17   18 ar
    32   17   36 1
    33   18   19 1
    34   20   21 1
    35   20   40 1
    36   21   22 2
    37   21   23 1
    38   22   37 1
    39   23   38 1
    40   23   39 1
    41   24   25 2
    42   24   26 1
@<TRIPOS>MOLECULE
CHEMBL111512__3
   41    43     0     0     0
SMALL
USER_CHARGES

@<TRIPOS>ATOM
      1 C1         -0.7352    1.7450   -0.6767 C.3       1 <0>         0.0262
      2 O1         -0.6719    0.3386   -0.4319 O.3       1 <0>        -0.3183
      3 C2          0.2068   -0.3771   -1.1768 C.ar      1 <0>         0.1399
      4 C3          0.9977    0.2633   -2.1219 C.ar      1 <0>        -0.2206
      5 C4          1.8912   -0.4578   -2.8816 C.ar      1 <0>        -0.0266
      6 C5          2.0076   -1.8416   -2.7054 C.ar      1 <0>        -0.1641
      7 C6          1.2157   -2.4921   -1.7564 C.ar      1 <0>        -0.0281
      8 C7          0.3197   -1.7608   -0.9881 C.ar      1 <0>        -0.1363
      9 C8         -0.5202   -2.4437    0.0257 C.ar      1 <0>         0.0346
     10 C9         -0.5867   -1.9331    1.3316 C.ar      1 <0>        -0.0451
     11 C10        -1.3492   -2.5401    2.2799 C.ar      1 <0>        -0.1057
     12 C11        -2.0809   -3.6920    1.9541 C.ar      1 <0>        -0.0029
     13 C12        -2.0213   -4.2170    0.6376 C.ar      1 <0>        -0.0841
     14 C13        -1.2355   -3.5751   -0.3262 C.ar      1 <0>        -0.1080
     15 C14        -2.7692   -5.3776    0.3391 C.ar      1 <0>         0.3840
     16 N1         -3.5001   -5.9448    1.2786 N.ar      1 <0>        -0.5262
     17 C15        -3.5696   -5.4701    2.5151 C.ar      1 <0>         0.1070
     18 C16        -2.8854   -4.3568    2.9001 C.ar      1 <0>        -0.0611
     19 Cl1        -3.0035   -3.7672    4.5286 Cl        1 <0>        -0.0218
     20 N2         -2.7350   -5.9192   -0.9398 N.pl3     1 <0>        -0.6202
     21 C17        -3.3558   -7.1150   -1.1947 C.cat     1 <0>         0.7466
     22 N3         -3.4451   -7.5657   -2.4446 N.pl3     1 <0>        -0.7906
     23 N4         -3.8693   -7.8256   -0.1924 N.pl3     1 <0>        -0.7657
     24 C18         2.9635   -2.6106   -3.5200 C.2       1 <0>         0.5212
     25 O2          3.6565   -2.0402   -4.3512 O.co2     1 <0>        -0.6795
     26 O3          3.0646   -3.8199   -3.3654 O.co2     1 <0>        -0.6897
     27 H1          0.2411    2.1911   -0.4869 H         1 <0>         0.0578
     28 H2         -1.0195    1.9208   -1.7141 H         1 <0>         0.0563
     29 H3         -1.4753    2.1959   -0.0157 H         1 <0>         0.0982
     30 H4          0.9112    1.3307   -2.2617 H         1 <0>         0.1292
     31 H5          2.5035    0.0453   -3.6153 H         1 <0>         0.1363
     32 H6          1.3026   -3.5597   -1.6181 H         1 <0>         0.1351
     33 H7         -0.0247   -1.0468    1.5867 H         1 <0>         0.1444
     34 H8         -1.3911   -2.1370    3.2809 H         1 <0>         0.1475
     35 H9         -1.1846   -3.9611   -1.3335 H         1 <0>         0.1361
     36 H10        -4.1874   -5.9815    3.2384 H         1 <0>         0.1803
     37 H11        -3.8842   -8.4116   -2.6249 H         1 <0>         0.4426
     38 H12        -3.0710   -7.0480   -3.1747 H         1 <0>         0.4421
     39 H13        -3.7564   -7.5251    0.7229 H         1 <0>         0.4473
     40 H14        -4.3563   -8.6438   -0.3777 H         1 <0>         0.4283
     41 H15        -2.2720   -5.4514   -1.6523 H         1 <0>         0.4537
@<TRIPOS>BOND
     1    1    2 1
     2    1   27 1
     3    1   28 1
     4    1   29 1
     5    2    3 1
     6    3    8 ar
     7    3    4 ar
     8    4    5 ar
     9    4   30 1
    10    5    6 ar
    11    5   31 1
    12    6    7 ar
    13    6   24 1
    14    7    8 ar
    15    7   32 1
    16    8    9 1
    17    9   14 ar
    18    9   10 ar
    19   10   11 ar
    20   10   33 1
    21   11   12 ar
    22   11   34 1
    23   12   18 ar
    24   12   13 ar
    25   13   14 ar
    26   13   15 ar
    27   14   35 1
    28   15   16 ar
    29   15   20 1
    30   16   17 ar
    31   17   18 ar
    32   17   36 1
    33   18   19 1
    34   20   21 1
    35   20   41 1
    36   21   22 2
    37   21   23 1
    38   22   37 1
    39   22   38 1
    40   23   39 1
    41   23   40 1
    42   24   25 2
    43   24   26 1
@<TRIPOS>MOLECULE
CHEMBL572022
   74    78     0     0     0
SMALL
USER_CHARGES

@<TRIPOS>ATOM
      1 C1         -2.6025    1.4730    0.2733 C.3       1 <0>         0.0947
      2 N1         -2.0444    0.1215    0.3632 N.pl3     1 <0>        -0.6275
      3 C2         -1.8270   -0.4956    1.6741 C.3       1 <0>         0.1026
      4 C3         -1.7213   -0.5751   -0.7947 C.ar      1 <0>         0.2235
      5 C4         -1.2864   -1.8978   -0.7110 C.ar      1 <0>        -0.2107
      6 C5         -0.9665   -2.5913   -1.8408 C.ar      1 <0>        -0.0219
      7 C6         -1.0731   -1.9775   -3.0957 C.ar      1 <0>        -0.1719
      8 C7         -1.5114   -0.6446   -3.1849 C.ar      1 <0>         0.1403
      9 C8         -1.8381    0.0468   -2.0317 C.ar      1 <0>        -0.2214
     10 O1         -1.6176   -0.0413   -4.3948 O.3       1 <0>        -0.1638
     11 C9         -1.3230    1.2817   -4.4754 C.ar      1 <0>         0.3428
     12 C10        -1.5565    1.9644   -5.6592 C.ar      1 <0>         0.0351
     13 C11        -1.2508    3.3229   -5.7310 C.ar      1 <0>         0.1915
     14 C12        -0.7191    3.9432   -4.6009 C.ar      1 <0>         0.0200
     15 C13        -0.5140    3.1938   -3.4531 C.ar      1 <0>         0.3256
     16 N2         -0.8213    1.9057   -3.4206 N.ar      1 <0>        -0.5190
     17 O2          0.0032    3.7881   -2.3474 O.3       1 <0>        -0.2201
     18 C14         0.2148    3.0171   -1.2485 C.ar      1 <0>         0.0868
     19 C15         0.4107    1.6495   -1.3873 C.ar      1 <0>        -0.1167
     20 C16         0.6266    0.8618   -0.2725 C.ar      1 <0>        -0.0721
     21 C17         0.6487    1.4304    0.9855 C.ar      1 <0>        -0.1054
     22 C18         0.4529    2.8021    1.1335 C.ar      1 <0>        -0.0538
     23 C19         0.2406    3.5965    0.0095 C.ar      1 <0>        -0.1148
     24 C20         0.4758    3.4155    2.4846 C.ar      1 <0>        -0.0168
     25 C21         0.2743    4.7863    2.6337 C.ar      1 <0>        -0.0813
     26 C22         0.2961    5.3514    3.8925 C.ar      1 <0>        -0.1074
     27 C23         0.5179    4.5597    5.0052 C.ar      1 <0>        -0.0985
     28 C24         0.7184    3.1987    4.8629 C.ar      1 <0>        -0.1645
     29 C25         0.6929    2.6221    3.6090 C.ar      1 <0>        -0.0912
     30 C26         0.9593    2.3428    6.0796 C.3       1 <0>         0.0473
     31 N3         -0.3256    1.8513    6.5948 N.4       1 <0>        -0.6374
     32 F1         -0.4075    5.2576   -4.6247 F         1 <0>        -0.1102
     33 N4         -1.4713    4.0440   -6.9052 N.pl3     1 <0>        -0.6649
     34 C27        -0.4276    4.1468   -7.9369 C.3       1 <0>         0.1165
     35 C28        -1.0437    3.7752   -9.2897 C.3       1 <0>        -0.0257
     36 N5         -2.2239    4.6135   -9.5358 N.4       1 <0>        -0.5013
     37 C29        -3.2603    4.3237   -8.5368 C.3       1 <0>        -0.0251
     38 C30        -2.7560    4.7178   -7.1492 C.3       1 <0>         0.1173
     39 F2         -2.0730    1.3217   -6.7294 F         1 <0>        -0.1019
     40 C31        -0.7281   -2.7227   -4.3123 C.2       1 <0>         0.5195
     41 O3         -0.3464   -3.8829   -4.2317 O.co2     1 <0>        -0.6841
     42 O4         -0.8221   -2.1841   -5.4073 O.co2     1 <0>        -0.6780
     43 H1         -1.7954    2.2036    0.3259 H         1 <0>         0.0510
     44 H2         -3.1329    1.5849   -0.6723 H         1 <0>         0.0604
     45 H3         -3.2946    1.6360    1.0995 H         1 <0>         0.0549
     46 H4         -2.6787   -1.1283    1.9235 H         1 <0>         0.0446
     47 H5         -0.9209   -1.1007    1.6450 H         1 <0>         0.0645
     48 H6         -1.7196    0.2834    2.4290 H         1 <0>         0.0541
     49 H7         -1.2023   -2.3753    0.2540 H         1 <0>         0.1196
     50 H8         -0.6302   -3.6150   -1.7681 H         1 <0>         0.1386
     51 H9         -2.1793    1.0697   -2.0927 H         1 <0>         0.1287
     52 H10         0.3939    1.2000   -2.3692 H         1 <0>         0.1700
     53 H11         0.7781   -0.2015   -0.3856 H         1 <0>         0.1329
     54 H12         0.8173    0.8121    1.8548 H         1 <0>         0.1203
     55 H13         0.0928    4.6607    0.1186 H         1 <0>         0.1321
     56 H14         0.1019    5.4054    1.7657 H         1 <0>         0.1364
     57 H15         0.1401    6.4137    4.0093 H         1 <0>         0.1370
     58 H16         0.5348    5.0062    5.9884 H         1 <0>         0.1316
     59 H17         0.8452    1.5585    3.4994 H         1 <0>         0.1348
     60 H18         1.5901    1.4960    5.8091 H         1 <0>         0.1406
     61 H19         1.4562    2.9351    6.8480 H         1 <0>         0.1408
     62 H20        -0.1643    1.2782    7.4095 H         1 <0>         0.4382
     63 H21        -0.9095    2.6352    6.8453 H         1 <0>         0.4344
     64 H22        -0.0495    5.1684   -7.9748 H         1 <0>         0.0898
     65 H23         0.3864    3.4603   -7.7041 H         1 <0>         0.1205
     66 H24        -0.3108    3.9384  -10.0799 H         1 <0>         0.1451
     67 H25        -1.3390    2.7261   -9.2787 H         1 <0>         0.1397
     68 H26        -1.9626    5.5862   -9.4751 H         1 <0>         0.4264
     69 H27        -4.1607    4.8910   -8.7722 H         1 <0>         0.1440
     70 H28        -3.4885    3.2579   -8.5486 H         1 <0>         0.1382
     71 H29        -3.4806    4.4085   -6.3959 H         1 <0>         0.1178
     72 H30        -2.6170    5.7980   -7.1062 H         1 <0>         0.0888
     73 H31        -0.7856    1.3030    5.8836 H         1 <0>         0.4345
     74 H32        -2.5847    4.4216  -10.4584 H         1 <0>         0.4336
@<TRIPOS>BOND
     1    1    2 1
     2    1   43 1
     3    1   44 1
     4    1   45 1
     5    2    3 1
     6    2    4 1
     7    3   46 1
     8    3   47 1
     9    3   48 1
    10    4    9 ar
    11    4    5 ar
    12    5    6 ar
    13    5   49 1
    14    6    7 ar
    15    6   50 1
    16    7    8 ar
    17    7   40 1
    18    8    9 ar
    19    8   10 1
    20    9   51 1
    21   10   11 1
    22   11   16 ar
    23   11   12 ar
    24   12   13 ar
    25   12   39 1
    26   13   14 ar
    27   13   33 1
    28   14   15 ar
    29   14   32 1
    30   15   16 ar
    31   15   17 1
    32   17   18 1
    33   18   23 ar
    34   18   19 ar
    35   19   20 ar
    36   19   52 1
    37   20   21 ar
    38   20   53 1
    39   21   22 ar
    40   21   54 1
    41   22   23 ar
    42   22   24 1
    43   23   55 1
    44   24   29 ar
    45   24   25 ar
    46   25   26 ar
    47   25   56 1
    48   26   27 ar
    49   26   57 1
    50   27   28 ar
    51   27   58 1
    52   28   29 ar
    53   28   30 1
    54   29   59 1
    55   30   31 1
    56   30   60 1
    57   30   61 1
    58   31   62 1
    59   31   63 1
    60   31   73 1
    61   33   38 1
    62   33   34 1
    63   34   35 1
    64   34   64 1
    65   34   65 1
    66   35   36 1
    67   35   66 1
    68   35   67 1
    69   36   37 1
    70   36   68 1
    71   36   74 1
    72   37   38 1
    73   37   69 1
    74   37   70 1
    75   38   71 1
    76   38   72 1
    77   40   41 2
    78   40   42 1
@<TRIPOS>MOLECULE
CHEMBL355341
   49    52     0     0     0
SMALL
USER_CHARGES

@<TRIPOS>ATOM
      1 C1         -9.0507   -2.0881    2.1290 C.3       1 <0>        -0.2202
      2 S1         -7.4890   -2.8187    1.5653 S.3       1 <0>         0.1712
      3 C2         -6.2523   -1.8105    2.3128 C.2       1 <0>        -0.0859
      4 C3         -4.8655   -1.9114    2.2174 C.2       1 <0>        -0.0811
      5 C4         -4.0954   -0.9962    2.9006 C.2       1 <0>         0.0208
      6 C5         -4.7311   -0.0208    3.6489 C.2       1 <0>        -0.3226
      7 S2         -6.4554   -0.3940    3.3796 S.3       1 <0>         0.1801
      8 C6         -4.1396    1.0490    4.4518 C.cat     1 <0>         0.6519
      9 N1         -4.9292    1.9054    5.1119 N.pl3     1 <0>        -0.7724
     10 N2         -2.8084    1.1718    4.5268 N.pl3     1 <0>        -0.7662
     11 C7         -4.2345   -2.9780    1.4007 C.2       1 <0>         0.1527
     12 C8         -2.8771   -3.0961    1.2992 C.2       1 <0>        -0.2721
     13 S3         -2.7449   -4.5130    0.2213 S.3       1 <0>         0.1575
     14 C9         -4.3885   -4.8062    0.0126 C.2       1 <0>         0.3141
     15 N3         -4.9603   -3.8690    0.7363 N.2       1 <0>        -0.5720
     16 N4         -4.9948   -5.8013   -0.7384 N.pl3     1 <0>        -0.6121
     17 C10        -4.2225   -6.6309   -1.5484 C.ar      1 <0>         0.1704
     18 C11        -4.6792   -6.9854   -2.8148 C.ar      1 <0>        -0.1247
     19 C12        -3.9192   -7.8048   -3.6179 C.ar      1 <0>        -0.0838
     20 C13        -2.6859   -8.2816   -3.1601 C.ar      1 <0>        -0.0095
     21 C14        -2.2303   -7.9230   -1.8866 C.ar      1 <0>        -0.0340
     22 C15        -2.9935   -7.0987   -1.0916 C.ar      1 <0>        -0.1503
     23 N5         -1.9298   -9.0944   -3.9532 N.2       1 <0>        -0.1504
     24 N6         -2.1496   -9.1420   -5.2234 N.2       1 <0>        -0.1371
     25 C16        -2.5531   -8.0187   -5.8899 C.ar      1 <0>        -0.0129
     26 C17        -3.1619   -8.1264   -7.1432 C.ar      1 <0>        -0.0625
     27 C18        -3.5664   -6.9888   -7.8096 C.ar      1 <0>        -0.1161
     28 C19        -3.3706   -5.7427   -7.2402 C.ar      1 <0>        -0.0910
     29 C20        -2.7680   -5.6282   -5.9996 C.ar      1 <0>        -0.1132
     30 C21        -2.3640   -6.7573   -5.3186 C.ar      1 <0>        -0.1155
     31 H1         -9.1085   -1.0521    1.7952 H         1 <0>         0.0955
     32 H2         -9.8862   -2.6511    1.7130 H         1 <0>         0.1309
     33 H3         -9.0958   -2.1222    3.2176 H         1 <0>         0.0957
     34 H4         -3.0173   -1.0393    2.8537 H         1 <0>         0.1554
     35 H5         -4.5368    2.6149    5.6444 H         1 <0>         0.4350
     36 H6         -2.2364    0.5514    4.0486 H         1 <0>         0.4432
     37 H7         -2.4161    1.8813    5.0593 H         1 <0>         0.4346
     38 H8         -2.0984   -2.4969    1.7475 H         1 <0>         0.1944
     39 H9         -5.9567   -5.9199   -0.6999 H         1 <0>         0.4282
     40 H10        -5.6314   -6.6173   -3.1673 H         1 <0>         0.1391
     41 H11        -4.2744   -8.0797   -4.6001 H         1 <0>         0.1380
     42 H12        -1.2791   -8.2894   -1.5296 H         1 <0>         0.1498
     43 H13        -2.6405   -6.8179   -0.1103 H         1 <0>         0.1396
     44 H14        -3.3150   -9.0982   -7.5889 H         1 <0>         0.1412
     45 H15        -4.0367   -7.0704   -8.7783 H         1 <0>         0.1372
     46 H16        -3.6894   -4.8553   -7.7667 H         1 <0>         0.1318
     47 H17        -2.6182   -4.6525   -5.5615 H         1 <0>         0.1291
     48 H18        -1.8985   -6.6668   -4.3483 H         1 <0>         0.1273
     49 H19        -5.8935    1.8163    5.0576 H         1 <0>         0.4409
@<TRIPOS>BOND
     1    1    2 1
     2    1   31 1
     3    1   32 1
     4    1   33 1
     5    2    3 1
     6    3    7 1
     7    3    4 2
     8    4    5 1
     9    4   11 1
    10    5    6 2
    11    5   34 1
    12    6    7 1
    13    6    8 1
    14    8    9 2
    15    8   10 1
    16    9   35 1
    17    9   49 1
    18   10   36 1
    19   10   37 1
    20   11   15 1
    21   11   12 2
    22   12   13 1
    23   12   38 1
    24   13   14 1
    25   14   15 2
    26   14   16 1
    27   16   17 1
    28   16   39 1
    29   17   22 ar
    30   17   18 ar
    31   18   19 ar
    32   18   40 1
    33   19   20 ar
    34   19   41 1
    35   20   21 ar
    36   20   23 1
    37   21   22 ar
    38   21   42 1
    39   22   43 1
    40   23   24 2
    41   24   25 1
    42   25   30 ar
    43   25   26 ar
    44   26   27 ar
    45   26   44 1
    46   27   28 ar
    47   27   45 1
    48   28   29 ar
    49   28   46 1
    50   29   30 ar
    51   29   47 1
    52   30   48 1
@<TRIPOS>MOLECULE
CHEMBL355341__1
   49    52     0     0     0
SMALL
USER_CHARGES

@<TRIPOS>ATOM
      1 C1         -0.9419    1.6918    0.5521 C.3       1 <0>        -0.2204
      2 S1         -0.6309   -0.0865    0.3739 S.3       1 <0>         0.1722
      3 C2          0.3183   -0.4982    1.8001 C.2       1 <0>        -0.0859
      4 C3          0.8405   -1.7344    2.1768 C.2       1 <0>        -0.0807
      5 C4          1.5580   -1.8102    3.3502 C.2       1 <0>         0.0210
      6 C5          1.7277   -0.6594    4.1001 C.2       1 <0>        -0.3229
      7 S2          0.8635    0.5626    3.1279 S.3       1 <0>         0.1795
      8 C6          2.4403   -0.4870    5.3655 C.cat     1 <0>         0.6520
      9 N1          2.4948    0.7191    5.9443 N.pl3     1 <0>        -0.7727
     10 N2          3.0382   -1.5354    5.9453 N.pl3     1 <0>        -0.7664
     11 C7          0.6284   -2.9384    1.3354 C.2       1 <0>         0.1515
     12 C8          1.1279   -4.1595    1.6907 C.2       1 <0>        -0.2720
     13 S3          0.5590   -5.1624    0.3278 S.3       1 <0>         0.1635
     14 C9         -0.2375   -3.9583   -0.5363 C.2       1 <0>         0.3116
     15 N3         -0.0610   -2.8847    0.2022 N.2       1 <0>        -0.5720
     16 N4         -0.9210   -4.0720   -1.7370 N.pl3     1 <0>        -0.6099
     17 C10        -1.1125   -5.3257   -2.3135 C.ar      1 <0>         0.1771
     18 C11        -1.3114   -6.4396   -1.5027 C.ar      1 <0>        -0.1638
     19 C12        -1.5010   -7.6798   -2.0684 C.ar      1 <0>        -0.0199
     20 C13        -1.4935   -7.8201   -3.4607 C.ar      1 <0>         0.0383
     21 C14        -1.2933   -6.6980   -4.2723 C.ar      1 <0>        -0.0648
     22 C15        -1.1101   -5.4603   -3.6991 C.ar      1 <0>        -0.1418
     23 N5         -1.6806   -9.0479   -4.0252 N.2       1 <0>        -0.2187
     24 N6         -1.6734   -9.1754   -5.3089 N.2       1 <0>        -0.2033
     25 C16        -1.8609  -10.4057   -5.8746 C.ar      1 <0>         0.0360
     26 C17        -2.0663  -11.5266   -5.0656 C.ar      1 <0>        -0.0925
     27 C18        -2.2546  -12.7646   -5.6435 C.ar      1 <0>        -0.1270
     28 C19        -2.2406  -12.8984   -7.0208 C.ar      1 <0>        -0.0842
     29 C20        -2.0373  -11.7931   -7.8283 C.ar      1 <0>        -0.1258
     30 C21        -1.8538  -10.5477   -7.2649 C.ar      1 <0>        -0.0527
     31 H1          0.0080    2.2256    0.5814 H         1 <0>         0.0955
     32 H2         -1.5308    2.0443   -0.2947 H         1 <0>         0.1309
     33 H3         -1.4898    1.8739    1.4766 H         1 <0>         0.0956
     34 H4          1.9793   -2.7488    3.6786 H         1 <0>         0.1554
     35 H5          2.9674    0.8334    6.7836 H         1 <0>         0.4349
     36 H6          2.9988   -2.4092    5.5260 H         1 <0>         0.4432
     37 H7          3.5109   -1.4210    6.7846 H         1 <0>         0.4345
     38 H8          1.7076   -4.4405    2.5575 H         1 <0>         0.1946
     39 H9         -1.2660   -3.2786   -2.1757 H         1 <0>         0.4280
     40 H10        -1.3167   -6.3305   -0.4282 H         1 <0>         0.1385
     41 H11        -1.6549   -8.5436   -1.4387 H         1 <0>         0.1462
     42 H12        -1.2865   -6.8024   -5.3472 H         1 <0>         0.1476
     43 H13        -0.9599   -4.5930   -4.3249 H         1 <0>         0.1379
     44 H14        -2.0771  -11.4237   -3.9906 H         1 <0>         0.1374
     45 H15        -2.4131  -13.6318   -5.0196 H         1 <0>         0.1304
     46 H16        -2.3887  -13.8704   -7.4678 H         1 <0>         0.1313
     47 H17        -2.0273  -11.9051   -8.9024 H         1 <0>         0.1357
     48 H18        -1.7004   -9.6851   -7.8964 H         1 <0>         0.1363
     49 H19         2.0616    1.4786    5.5243 H         1 <0>         0.4408
@<TRIPOS>BOND
     1    1    2 1
     2    1   31 1
     3    1   32 1
     4    1   33 1
     5    2    3 1
     6    3    7 1
     7    3    4 2
     8    4    5 1
     9    4   11 1
    10    5    6 2
    11    5   34 1
    12    6    7 1
    13    6    8 1
    14    8    9 2
    15    8   10 1
    16    9   35 1
    17    9   49 1
    18   10   36 1
    19   10   37 1
    20   11   15 1
    21   11   12 2
    22   12   13 1
    23   12   38 1
    24   13   14 1
    25   14   15 2
    26   14   16 1
    27   16   17 1
    28   16   39 1
    29   17   22 ar
    30   17   18 ar
    31   18   19 ar
    32   18   40 1
    33   19   20 ar
    34   19   41 1
    35   20   21 ar
    36   20   23 1
    37   21   22 ar
    38   21   42 1
    39   22   43 1
    40   23   24 2
    41   24   25 1
    42   25   30 ar
    43   25   26 ar
    44   26   27 ar
    45   26   44 1
    46   27   28 ar
    47   27   45 1
    48   28   29 ar
    49   28   46 1
    50   29   30 ar
    51   29   47 1
    52   30   48 1
@<TRIPOS>MOLECULE
CHEMBL417754
   39    40     0     0     0
SMALL
USER_CHARGES

@<TRIPOS>ATOM
      1 C1          0.0157    1.4835    0.0896 C.ar      1 <0>        -0.1113
      2 C2          1.2089    2.1816    0.0845 C.ar      1 <0>        -0.1212
      3 C3          2.4098    1.4974    0.0595 C.ar      1 <0>        -0.1007
      4 C4          2.4176    0.1153    0.0400 C.ar      1 <0>        -0.1114
      5 C5          1.2244   -0.5828    0.0460 C.ar      1 <0>        -0.1011
      6 C6          0.0235    0.1014    0.0696 C.ar      1 <0>        -0.1215
      7 C7          3.7268   -0.6306    0.0117 C.3       1 <0>         0.1618
      8 N1          4.1698   -0.8916    1.3835 N.am      1 <0>        -0.7248
      9 C8          5.3243   -1.5508    1.6048 C.2       1 <0>         0.5523
     10 O1          5.9990   -1.9294    0.6648 O.2       1 <0>        -0.5464
     11 C9          5.7532   -1.8035    2.9325 C.2       1 <0>        -0.2343
     12 C10         6.9118   -2.4651    3.1546 C.2       1 <0>         0.0203
     13 C11         7.3551   -2.7263    4.5273 C.ar      1 <0>        -0.1546
     14 C12         6.5863   -2.3018    5.6197 C.ar      1 <0>        -0.0305
     15 C13         7.0490   -2.5737    6.8951 C.ar      1 <0>        -0.1248
     16 C14         8.2471   -3.2510    7.0602 C.ar      1 <0>         0.1536
     17 N2          8.9602   -3.6445    6.0248 N.ar      1 <0>        -0.4985
     18 C15         8.5645   -3.4169    4.7757 C.ar      1 <0>         0.3913
     19 N3          9.3263   -3.8445    3.7353 N.2       1 <0>        -0.6363
     20 C16         9.2076   -5.0811    3.2963 C.2       1 <0>         0.6885
     21 N4          8.2429   -5.9020    3.8154 N.pl3     1 <0>        -0.8743
     22 N5         10.0489   -5.5450    2.3213 N.pl3     1 <0>        -0.8309
     23 Cl1         6.1340   -2.0686    8.2813 Cl        1 <0>        -0.0552
     24 H1         -0.9225    2.0180    0.1137 H         1 <0>         0.1240
     25 H2          1.2028    3.2615    0.0997 H         1 <0>         0.1250
     26 H3          3.3420    2.0428    0.0548 H         1 <0>         0.1243
     27 H4          1.2305   -1.6627    0.0304 H         1 <0>         0.1238
     28 H5         -0.9087   -0.4440    0.0740 H         1 <0>         0.1247
     29 H6          3.5948   -1.5764   -0.5137 H         1 <0>         0.0768
     30 H7          4.4760   -0.0299   -0.5040 H         1 <0>         0.0772
     31 H8          3.6323   -0.5900    2.1324 H         1 <0>         0.4021
     32 H9          5.1547   -1.4677    3.7664 H         1 <0>         0.1261
     33 H10         7.5103   -2.8009    2.3207 H         1 <0>         0.1428
     34 H11         5.6556   -1.7750    5.4696 H         1 <0>         0.1470
     35 H12         8.6034   -3.4601    8.0580 H         1 <0>         0.1657
     36 H13         7.5989   -5.5522    4.4508 H         1 <0>         0.4123
     37 H14        10.7325   -4.9634    1.9535 H         1 <0>         0.4255
     38 H15         9.9615   -6.4555    1.9982 H         1 <0>         0.4112
     39 H16         8.2033   -6.8335    3.5477 H         1 <0>         0.4017
@<TRIPOS>BOND
     1    1    6 ar
     2    1    2 ar
     3    1   24 1
     4    2    3 ar
     5    2   25 1
     6    3    4 ar
     7    3   26 1
     8    4    5 ar
     9    4    7 1
    10    5    6 ar
    11    5   27 1
    12    6   28 1
    13    7    8 1
    14    7   29 1
    15    7   30 1
    16    8    9 am
    17    8   31 1
    18    9   10 2
    19    9   11 1
    20   11   12 2
    21   11   32 1
    22   12   13 1
    23   12   33 1
    24   13   18 ar
    25   13   14 ar
    26   14   15 ar
    27   14   34 1
    28   15   16 ar
    29   15   23 1
    30   16   17 ar
    31   16   35 1
    32   17   18 ar
    33   18   19 1
    34   19   20 2
    35   20   21 1
    36   20   22 1
    37   21   36 1
    38   21   39 1
    39   22   37 1
    40   22   38 1
@<TRIPOS>MOLECULE
CHEMBL417754__1
   40    41     0     0     0
SMALL
USER_CHARGES

@<TRIPOS>ATOM
      1 C1         -0.5090    0.5659    0.2653 C.ar      1 <0>        -0.1059
      2 C2          0.5344    1.4173    0.5772 C.ar      1 <0>        -0.1200
      3 C3          1.8367    0.9548    0.5467 C.ar      1 <0>        -0.1001
      4 C4          2.0956   -0.3594    0.2047 C.ar      1 <0>        -0.1201
      5 C5          1.0521   -1.2110   -0.1063 C.ar      1 <0>        -0.1001
      6 C6         -0.2501   -0.7481   -0.0772 C.ar      1 <0>        -0.1200
      7 C7          3.5154   -0.8634    0.1705 C.3       1 <0>         0.1613
      8 N1          3.8779   -1.3917    1.4880 N.am      1 <0>        -0.7120
      9 C8          5.1089   -1.8999    1.6948 C.2       1 <0>         0.5399
     10 O1          5.9195   -1.9201    0.7869 O.2       1 <0>        -0.5379
     11 C9          5.4708   -2.4272    3.0098 C.2       1 <0>        -0.1511
     12 C10         6.7042   -2.9364    3.2170 C.2       1 <0>        -0.0615
     13 C11         7.0677   -3.4661    4.5379 C.ar      1 <0>        -0.0951
     14 C12         6.1424   -3.4548    5.5911 C.ar      1 <0>        -0.0143
     15 C13         6.5350   -3.9662    6.8157 C.ar      1 <0>        -0.0918
     16 C14         7.8168   -4.4694    6.9650 C.ar      1 <0>         0.1690
     17 N2          8.6723   -4.4708    5.9612 N.ar      1 <0>        -0.5184
     18 C15         8.3487   -3.9996    4.7682 C.ar      1 <0>         0.3589
     19 N3          9.2802   -4.0270    3.7393 N.pl3     1 <0>        -0.6254
     20 C16        10.5694   -4.4212    3.9917 C.cat     1 <0>         0.7469
     21 N4         11.4251   -4.5837    2.9846 N.pl3     1 <0>        -0.7880
     22 N5         10.9652   -4.6413    5.2438 N.pl3     1 <0>        -0.7639
     23 Cl1         5.4298   -3.9764    8.1544 Cl        1 <0>        -0.0087
     24 H1         -1.5267    0.9261    0.2935 H         1 <0>         0.1268
     25 H2          0.3322    2.4440    0.8444 H         1 <0>         0.1269
     26 H3          2.6520    1.6201    0.7897 H         1 <0>         0.1239
     27 H4          1.2544   -2.2377   -0.3738 H         1 <0>         0.1240
     28 H5         -1.0653   -1.4134   -0.3205 H         1 <0>         0.1270
     29 H6          3.6023   -1.6543   -0.5745 H         1 <0>         0.0817
     30 H7          4.1856   -0.0441   -0.0894 H         1 <0>         0.0816
     31 H8          3.2320   -1.3757    2.2115 H         1 <0>         0.4062
     32 H9          4.7516   -2.4094    3.8153 H         1 <0>         0.1390
     33 H10         7.4233   -2.9543    2.4114 H         1 <0>         0.1407
     34 H11         5.1484   -3.0566    5.4504 H         1 <0>         0.1694
     35 H12         8.1215   -4.8677    7.9215 H         1 <0>         0.1928
     36 H13         9.0193   -3.7674    2.8418 H         1 <0>         0.4527
     37 H14        11.1368   -4.4234    2.0724 H         1 <0>         0.4417
     38 H15        10.3594   -4.4688    5.9814 H         1 <0>         0.4470
     39 H16        11.8594   -4.9742    5.4184 H         1 <0>         0.4317
     40 H17        12.3369   -4.8625    3.1631 H         1 <0>         0.4452
@<TRIPOS>BOND
     1    1    6 ar
     2    1    2 ar
     3    1   24 1
     4    2    3 ar
     5    2   25 1
     6    3    4 ar
     7    3   26 1
     8    4    5 ar
     9    4    7 1
    10    5    6 ar
    11    5   27 1
    12    6   28 1
    13    7    8 1
    14    7   29 1
    15    7   30 1
    16    8    9 am
    17    8   31 1
    18    9   10 2
    19    9   11 1
    20   11   12 2
    21   11   32 1
    22   12   13 1
    23   12   33 1
    24   13   18 ar
    25   13   14 ar
    26   14   15 ar
    27   14   34 1
    28   15   16 ar
    29   15   23 1
    30   16   17 ar
    31   16   35 1
    32   17   18 ar
    33   18   19 1
    34   19   20 1
    35   19   36 1
    36   20   21 2
    37   20   22 1
    38   21   37 1
    39   21   40 1
    40   22   38 1
    41   22   39 1
@<TRIPOS>MOLECULE
CHEMBL417754__2
   39    40     0     0     0
SMALL
USER_CHARGES

@<TRIPOS>ATOM
      1 C1         -0.0167    1.3781    0.0096 C.ar      1 <0>        -0.1104
      2 C2          1.1709    2.0855    0.0021 C.ar      1 <0>        -0.1213
      3 C3          2.3773    1.4107   -0.0130 C.ar      1 <0>        -0.1005
      4 C4          2.3960    0.0285   -0.0201 C.ar      1 <0>        -0.1130
      5 C5          1.2084   -0.6789   -0.0117 C.ar      1 <0>        -0.1005
      6 C6          0.0021   -0.0041    0.0020 C.ar      1 <0>        -0.1213
      7 C7          3.7112   -0.7071   -0.0376 C.3       1 <0>         0.1615
      8 N1          4.1518   -0.9524    1.3379 N.am      1 <0>        -0.7209
      9 C8          5.3108   -1.6005    1.5688 C.2       1 <0>         0.5484
     10 O1          5.9914   -1.9820    0.6345 O.2       1 <0>        -0.5451
     11 C9          5.7505   -1.8453    2.9415 C.2       1 <0>        -0.2091
     12 C10         6.9118   -2.4946    3.1729 C.2       1 <0>        -0.0104
     13 C11         7.3536   -2.7405    4.5519 C.ar      1 <0>        -0.1646
     14 C12         6.5771   -2.3120    5.6376 C.ar      1 <0>        -0.0189
     15 C13         7.0385   -2.5686    6.9169 C.ar      1 <0>        -0.1333
     16 C14         8.2412   -3.2343    7.0872 C.ar      1 <0>         0.1674
     17 N2          8.9569   -3.6293    6.0522 N.ar      1 <0>        -0.4374
     18 C15         8.5610   -3.4157    4.8079 C.ar      1 <0>         0.4171
     19 N3          9.3439   -3.8546    3.7500 N.pl3     1 <0>        -0.6354
     20 C16        10.5271   -4.5162    3.9965 C.2       1 <0>         0.6058
     21 N4         10.9108   -4.7297    5.2233 N.2       1 <0>        -0.7390
     22 N5         11.3029   -4.9512    2.9480 N.pl3     1 <0>        -0.8965
     23 Cl1         6.1174   -2.0596    8.2975 Cl        1 <0>        -0.0547
     24 H1         -0.9591    1.9053    0.0259 H         1 <0>         0.1243
     25 H2          1.1563    3.1654    0.0076 H         1 <0>         0.1251
     26 H3          3.3051    1.9634   -0.0196 H         1 <0>         0.1242
     27 H4          1.2231   -1.7588   -0.0176 H         1 <0>         0.1242
     28 H5         -0.9258   -0.5567    0.0082 H         1 <0>         0.1251
     29 H6          3.5884   -1.6586   -0.5549 H         1 <0>         0.0781
     30 H7          4.4573   -0.1052   -0.5563 H         1 <0>         0.0781
     31 H8          3.6095   -0.6484    2.0824 H         1 <0>         0.4038
     32 H9          5.1467   -1.5068    3.7705 H         1 <0>         0.1321
     33 H10         7.5157   -2.8331    2.3439 H         1 <0>         0.1334
     34 H11         5.6426   -1.7942    5.4797 H         1 <0>         0.1503
     35 H12         8.5997   -3.4333    8.0863 H         1 <0>         0.1702
     36 H13         9.0582   -3.6956    2.8367 H         1 <0>         0.4236
     37 H14        11.7437   -5.1955    5.3968 H         1 <0>         0.3366
     38 H15        11.0173   -4.7922    2.0348 H         1 <0>         0.3905
     39 H16        12.1359   -5.4169    3.1216 H         1 <0>         0.4120
@<TRIPOS>BOND
     1    1    6 ar
     2    1    2 ar
     3    1   24 1
     4    2    3 ar
     5    2   25 1
     6    3    4 ar
     7    3   26 1
     8    4    5 ar
     9    4    7 1
    10    5    6 ar
    11    5   27 1
    12    6   28 1
    13    7    8 1
    14    7   29 1
    15    7   30 1
    16    8    9 am
    17    8   31 1
    18    9   10 2
    19    9   11 1
    20   11   12 2
    21   11   32 1
    22   12   13 1
    23   12   33 1
    24   13   18 ar
    25   13   14 ar
    26   14   15 ar
    27   14   34 1
    28   15   16 ar
    29   15   23 1
    30   16   17 ar
    31   16   35 1
    32   17   18 ar
    33   18   19 1
    34   19   20 1
    35   19   36 1
    36   20   21 2
    37   20   22 1
    38   21   37 1
    39   22   38 1
    40   22   39 1
@<TRIPOS>MOLECULE
CHEMBL417754__3
   39    40     0     0     0
SMALL
USER_CHARGES

@<TRIPOS>ATOM
      1 C1          0.0068    1.4145    0.0056 C.ar      1 <0>        -0.1101
      2 C2          1.1967    2.1180    0.0055 C.ar      1 <0>        -0.1212
      3 C3          2.4009    1.4393   -0.0091 C.ar      1 <0>        -0.1004
      4 C4          2.4151    0.0571   -0.0231 C.ar      1 <0>        -0.1133
      5 C5          1.2252   -0.6464   -0.0220 C.ar      1 <0>        -0.1004
      6 C6          0.0210    0.0322   -0.0089 C.ar      1 <0>        -0.1212
      7 C7          3.7279   -0.6828   -0.0399 C.3       1 <0>         0.1611
      8 N1          4.1632   -0.9364    1.3357 N.am      1 <0>        -0.7198
      9 C8          5.3193   -1.5894    1.5671 C.2       1 <0>         0.5464
     10 O1          6.0017   -1.9685    0.6331 O.2       1 <0>        -0.5410
     11 C9          5.7538   -1.8425    2.9400 C.2       1 <0>        -0.1989
     12 C10         6.9122   -2.4969    3.1719 C.2       1 <0>        -0.0178
     13 C11         7.3487   -2.7511    4.5510 C.ar      1 <0>        -0.1568
     14 C12         6.5701   -2.3255    5.6364 C.ar      1 <0>        -0.0049
     15 C13         7.0265   -2.5900    6.9158 C.ar      1 <0>        -0.1331
     16 C14         8.2264   -3.2605    7.0867 C.ar      1 <0>         0.1784
     17 N2          8.9441   -3.6527    6.0521 N.ar      1 <0>        -0.5185
     18 C15         8.5531   -3.4316    4.8076 C.ar      1 <0>         0.4139
     19 N3          9.3379   -3.8677    3.7500 N.pl3     1 <0>        -0.6726
     20 C16        10.5749   -4.4238    3.9935 C.2       1 <0>         0.6341
     21 N4         11.3568   -4.7342    2.9986 N.2       1 <0>        -0.8065
     22 N5         10.9840   -4.6511    5.2863 N.pl3     1 <0>        -0.8383
     23 Cl1         6.1025   -2.0849    8.2960 Cl        1 <0>        -0.0428
     24 H1         -0.9340    1.9446    0.0215 H         1 <0>         0.1245
     25 H2          1.1856    3.1979    0.0164 H         1 <0>         0.1253
     26 H3          3.3305    1.9889   -0.0099 H         1 <0>         0.1243
     27 H4          1.2363   -1.7263   -0.0333 H         1 <0>         0.1243
     28 H5         -0.9087   -0.5174   -0.0084 H         1 <0>         0.1253
     29 H6          3.6037   -1.6313   -0.5624 H         1 <0>         0.0789
     30 H7          4.4777   -0.0807   -0.5532 H         1 <0>         0.0789
     31 H8          3.6195   -0.6343    2.0800 H         1 <0>         0.4038
     32 H9          5.1483   -1.5062    3.7687 H         1 <0>         0.1329
     33 H10         7.5176   -2.8332    2.3432 H         1 <0>         0.1365
     34 H11         5.6377   -1.8039    5.4780 H         1 <0>         0.1552
     35 H12         8.5810   -3.4657    8.0859 H         1 <0>         0.1789
     36 H13         9.0158   -3.7811    2.8391 H         1 <0>         0.4277
     37 H14        10.4390   -4.3454    6.0283 H         1 <0>         0.4197
     38 H15        11.8175   -5.1171    5.4564 H         1 <0>         0.4055
     39 H16        11.1000   -4.5079    2.0910 H         1 <0>         0.3423
@<TRIPOS>BOND
     1    1    6 ar
     2    1    2 ar
     3    1   24 1
     4    2    3 ar
     5    2   25 1
     6    3    4 ar
     7    3   26 1
     8    4    5 ar
     9    4    7 1
    10    5    6 ar
    11    5   27 1
    12    6   28 1
    13    7    8 1
    14    7   29 1
    15    7   30 1
    16    8    9 am
    17    8   31 1
    18    9   10 2
    19    9   11 1
    20   11   12 2
    21   11   32 1
    22   12   13 1
    23   12   33 1
    24   13   18 ar
    25   13   14 ar
    26   14   15 ar
    27   14   34 1
    28   15   16 ar
    29   15   23 1
    30   16   17 ar
    31   16   35 1
    32   17   18 ar
    33   18   19 1
    34   19   20 1
    35   19   36 1
    36   20   21 2
    37   20   22 1
    38   21   39 1
    39   22   37 1
    40   22   38 1
@<TRIPOS>MOLECULE
CHEMBL353478
   49    51     0     0     0
SMALL
USER_CHARGES

@<TRIPOS>ATOM
      1 C1         -3.4299   -3.9038   -2.3192 C.3       1 <0>         0.0209
      2 O1         -2.2687   -3.5492   -1.5657 O.3       1 <0>        -0.2920
      3 C2         -2.3479   -2.4279   -0.8004 C.ar      1 <0>         0.1874
      4 C3         -3.5205   -1.6894   -0.7720 C.ar      1 <0>        -0.2762
      5 C4         -3.6016   -0.5445    0.0092 C.ar      1 <0>         0.2281
      6 C5         -2.5081   -0.1382    0.7623 C.ar      1 <0>        -0.2551
      7 C6         -1.3347   -0.8754    0.7346 C.ar      1 <0>         0.1843
      8 C7         -1.2551   -2.0252   -0.0421 C.ar      1 <0>         0.0184
      9 O2         -0.1046   -2.7534   -0.0651 O.3       1 <0>        -0.3085
     10 C8          0.8654   -2.4030   -1.0542 C.3       1 <0>         0.0333
     11 O3         -0.2637   -0.4772    1.4718 O.3       1 <0>        -0.2933
     12 C9         -0.4183    0.7103    2.2517 C.3       1 <0>         0.0214
     13 N1         -4.7860    0.2007    0.0374 N.pl3     1 <0>        -0.6105
     14 C10        -6.0110   -0.4408   -0.0590 C.2       1 <0>         0.3162
     15 N2         -7.2065    0.0971   -0.1612 N.2       1 <0>        -0.5718
     16 C11        -8.2936   -0.6605   -0.2454 C.2       1 <0>         0.1522
     17 C12        -8.1009   -2.0126   -0.2200 C.2       1 <0>        -0.2727
     18 S1         -6.3230   -2.0940   -0.0804 S.3       1 <0>         0.1577
     19 C13        -9.6496   -0.0683   -0.3607 C.2       1 <0>        -0.0808
     20 C14       -10.7663   -0.8708   -0.4407 C.2       1 <0>         0.0208
     21 C15       -12.0089   -0.2707   -0.5466 C.2       1 <0>        -0.3226
     22 S2        -11.5982    1.4661   -0.5335 S.3       1 <0>         0.1800
     23 C16        -9.8260    1.3140   -0.3851 C.2       1 <0>        -0.0859
     24 S3         -8.6103    2.5862   -0.2945 S.3       1 <0>         0.1713
     25 C17        -9.5733    4.1208   -0.3844 C.3       1 <0>        -0.2202
     26 C18       -13.3253   -0.9003   -0.6451 C.cat     1 <0>         0.6519
     27 N3        -14.4245   -0.1420   -0.7413 N.pl3     1 <0>        -0.7725
     28 N4        -13.4311   -2.2350   -0.6392 N.pl3     1 <0>        -0.7662
     29 H1         -3.2325   -4.8150   -2.8838 H         1 <0>         0.1093
     30 H2         -4.2664   -4.0708   -1.6406 H         1 <0>         0.0593
     31 H3         -3.6767   -3.0959   -3.0081 H         1 <0>         0.0578
     32 H4         -4.3712   -2.0044   -1.3581 H         1 <0>         0.1422
     33 H5         -2.5717    0.7527    1.3695 H         1 <0>         0.1446
     34 H6          1.7310   -3.0590   -0.9627 H         1 <0>         0.0965
     35 H7          0.4286   -2.5140   -2.0467 H         1 <0>         0.0456
     36 H8          1.1763   -1.3686   -0.9077 H         1 <0>         0.0460
     37 H9          0.5074    0.9149    2.7895 H         1 <0>         0.1087
     38 H10        -0.6498    1.5488    1.5948 H         1 <0>         0.0595
     39 H11        -1.2305    0.5730    2.9655 H         1 <0>         0.0605
     40 H12        -4.7496    1.1662    0.1243 H         1 <0>         0.4282
     41 H13        -8.8247   -2.8124   -0.2734 H         1 <0>         0.1948
     42 H14       -10.6740   -1.9467   -0.4215 H         1 <0>         0.1554
     43 H15       -10.1269    4.1479   -1.3230 H         1 <0>         0.0956
     44 H16       -10.2724    4.1605    0.4510 H         1 <0>         0.0956
     45 H17        -8.8994    4.9761   -0.3352 H         1 <0>         0.1309
     46 H18       -14.3479    0.8250   -0.7456 H         1 <0>         0.4409
     47 H19       -12.6347   -2.7843   -0.5696 H         1 <0>         0.4432
     48 H20       -14.3042   -2.6526   -0.7046 H         1 <0>         0.4346
     49 H21       -15.2976   -0.5596   -0.8066 H         1 <0>         0.4350
@<TRIPOS>BOND
     1    1    2 1
     2    1   29 1
     3    1   30 1
     4    1   31 1
     5    2    3 1
     6    3    8 ar
     7    3    4 ar
     8    4    5 ar
     9    4   32 1
    10    5    6 ar
    11    5   13 1
    12    6    7 ar
    13    6   33 1
    14    7    8 ar
    15    7   11 1
    16    8    9 1
    17    9   10 1
    18   10   34 1
    19   10   35 1
    20   10   36 1
    21   11   12 1
    22   12   37 1
    23   12   38 1
    24   12   39 1
    25   13   14 1
    26   13   40 1
    27   14   18 1
    28   14   15 2
    29   15   16 1
    30   16   17 2
    31   16   19 1
    32   17   18 1
    33   17   41 1
    34   19   23 2
    35   19   20 1
    36   20   21 2
    37   20   42 1
    38   21   22 1
    39   21   26 1
    40   22   23 1
    41   23   24 1
    42   24   25 1
    43   25   43 1
    44   25   44 1
    45   25   45 1
    46   26   27 2
    47   26   28 1
    48   27   46 1
    49   27   49 1
    50   28   47 1
    51   28   48 1
@<TRIPOS>MOLECULE
CHEMBL173906
   49    52     0     0     0
SMALL
USER_CHARGES

@<TRIPOS>ATOM
      1 C1          0.7156    1.9549    1.2718 C.3       1 <0>        -0.2221
      2 S1          0.5628    0.1653    1.0176 S.3       1 <0>         0.1741
      3 C2          1.5393   -0.1466   -0.4155 C.2       1 <0>        -0.0853
      4 C3          1.7755   -1.3558   -1.0672 C.2       1 <0>        -0.0833
      5 C4          2.5836   -1.3496   -2.1827 C.2       1 <0>         0.0200
      6 C5          3.1229   -0.1470   -2.6051 C.2       1 <0>        -0.3236
      7 S2          2.4725    1.0062   -1.4083 S.3       1 <0>         0.1769
      8 C6          3.9998    0.1136   -3.7462 C.cat     1 <0>         0.6517
      9 N1          4.4220    1.3595   -3.9952 N.pl3     1 <0>        -0.7730
     10 N2          4.3803   -0.8938   -4.5418 N.pl3     1 <0>        -0.7668
     11 C7          1.1722   -2.6180   -0.5716 C.2       1 <0>         0.1483
     12 C8          1.4156   -3.7971   -1.2161 C.2       1 <0>        -0.2515
     13 S3          0.4656   -4.9285   -0.2089 S.3       1 <0>         0.0497
     14 C9         -0.1529   -3.7235    0.9576 C.2       1 <0>         0.3835
     15 N3          0.3975   -2.6112    0.5031 N.2       1 <0>        -0.5685
     16 N4         -0.9844   -3.9076    2.0511 N.pl3     1 <0>        -0.6013
     17 C10        -1.3566   -5.2008    2.4378 C.ar      1 <0>         0.1061
     18 C11        -0.4688   -6.2566    2.2759 C.ar      1 <0>        -0.1141
     19 C12        -0.8358   -7.5317    2.6572 C.ar      1 <0>        -0.1358
     20 C13        -2.0927   -7.7587    3.2030 C.ar      1 <0>         0.1825
     21 C14        -2.9804   -6.7027    3.3652 C.ar      1 <0>        -0.1371
     22 C15        -2.6115   -5.4268    2.9884 C.ar      1 <0>        -0.0964
     23 N5         -2.4650   -9.0515    3.5891 N.pl3     1 <0>        -0.6840
     24 C16        -3.8133   -9.4166    3.5987 C.ar      1 <0>         0.1733
     25 C17        -4.7019   -8.8222    2.7113 C.ar      1 <0>        -0.1659
     26 C18        -6.0341   -9.1858    2.7232 C.ar      1 <0>        -0.0870
     27 C19        -6.4841  -10.1400    3.6174 C.ar      1 <0>        -0.1489
     28 C20        -5.6024  -10.7336    4.5021 C.ar      1 <0>        -0.0847
     29 C21        -4.2678  -10.3790    4.4918 C.ar      1 <0>        -0.1630
     30 H1          1.7638    2.2118    1.4252 H         1 <0>         0.0949
     31 H2          0.3373    2.4801    0.3948 H         1 <0>         0.0950
     32 H3          0.1377    2.2480    2.1483 H         1 <0>         0.1304
     33 H4          2.7924   -2.2648   -2.7168 H         1 <0>         0.1547
     34 H5          5.0036    1.5324   -4.7520 H         1 <0>         0.4346
     35 H6          4.0744   -1.7964   -4.3614 H         1 <0>         0.4431
     36 H7          4.9619   -0.7209   -5.2986 H         1 <0>         0.4343
     37 H8          2.0159   -3.9923   -2.0924 H         1 <0>         0.1937
     38 H9         -1.3084   -3.1405    2.5486 H         1 <0>         0.4277
     39 H10         0.5085   -6.0801    1.8515 H         1 <0>         0.1314
     40 H11        -0.1457   -8.3528    2.5307 H         1 <0>         0.1341
     41 H12        -3.9577   -6.8792    3.7896 H         1 <0>         0.1386
     42 H13        -3.3002   -4.6050    3.1184 H         1 <0>         0.1348
     43 H14        -1.7868   -9.6940    3.8499 H         1 <0>         0.4124
     44 H15        -4.3513   -8.0765    2.0132 H         1 <0>         0.1253
     45 H16        -6.7254   -8.7243    2.0337 H         1 <0>         0.1253
     46 H17        -7.5266  -10.4220    3.6251 H         1 <0>         0.1241
     47 H18        -5.9572  -11.4782    5.1993 H         1 <0>         0.1268
     48 H19        -3.5789  -10.8459    5.1802 H         1 <0>         0.1245
     49 H20         4.1463    2.0894   -3.4188 H         1 <0>         0.4408
@<TRIPOS>BOND
     1    1    2 1
     2    1   30 1
     3    1   31 1
     4    1   32 1
     5    2    3 1
     6    3    7 1
     7    3    4 2
     8    4    5 1
     9    4   11 1
    10    5    6 2
    11    5   33 1
    12    6    7 1
    13    6    8 1
    14    8    9 2
    15    8   10 1
    16    9   34 1
    17    9   49 1
    18   10   35 1
    19   10   36 1
    20   11   15 1
    21   11   12 2
    22   12   13 1
    23   12   37 1
    24   13   14 1
    25   14   15 2
    26   14   16 1
    27   16   17 1
    28   16   38 1
    29   17   22 ar
    30   17   18 ar
    31   18   19 ar
    32   18   39 1
    33   19   20 ar
    34   19   40 1
    35   20   21 ar
    36   20   23 1
    37   21   22 ar
    38   21   41 1
    39   22   42 1
    40   23   24 1
    41   23   43 1
    42   24   29 ar
    43   24   25 ar
    44   25   26 ar
    45   25   44 1
    46   26   27 ar
    47   26   45 1
    48   27   28 ar
    49   27   46 1
    50   28   29 ar
    51   28   47 1
    52   29   48 1
@<TRIPOS>MOLECULE
CHEMBL182546
   47    50     0     0     0
SMALL
USER_CHARGES

@<TRIPOS>ATOM
      1 C1         -0.0167    1.3781    0.0096 C.ar      1 <0>        -0.1194
      2 C2          1.1709    2.0855    0.0021 C.ar      1 <0>        -0.1165
      3 C3          2.3773    1.4107   -0.0130 C.ar      1 <0>        -0.1167
      4 C4          2.3960    0.0285   -0.0201 C.ar      1 <0>        -0.0906
      5 C5          1.2084   -0.6789   -0.0117 C.ar      1 <0>        -0.1168
      6 C6          0.0021   -0.0041    0.0020 C.ar      1 <0>        -0.1167
      7 C7          3.7112   -0.7071   -0.0376 C.3       1 <0>        -0.0718
      8 C8          4.1714   -0.9633    1.3989 C.3       1 <0>        -0.0873
      9 C9          5.4865   -1.6989    1.3815 C.ar      1 <0>        -0.0315
     10 C10         5.4910   -3.0618    1.3690 C.ar      1 <0>        -0.1167
     11 C11         6.7078   -3.7628    1.3521 C.ar      1 <0>        -0.0051
     12 C12         6.7323   -5.1701    1.3385 C.ar      1 <0>        -0.0795
     13 C13         7.9194   -5.8283    1.3224 C.ar      1 <0>        -0.0947
     14 C14         9.1348   -5.1217    1.3191 C.ar      1 <0>        -0.1617
     15 C15         9.1422   -3.7361    1.3322 C.ar      1 <0>        -0.0178
     16 C16         7.9276   -3.0410    1.3484 C.ar      1 <0>        -0.0607
     17 C17         7.8952   -1.6251    1.3616 C.ar      1 <0>         0.0169
     18 C18         6.6730   -0.9756    1.3726 C.ar      1 <0>        -0.0874
     19 C19         9.1558   -0.8476    1.3579 C.2       1 <0>        -0.1598
     20 C20         9.5052    0.2699    0.4724 C.2       1 <0>        -0.2001
     21 C21        10.7388    0.6585    0.8350 C.2       1 <0>        -0.0180
     22 O1         11.1611   -0.1140    1.8475 O.3       1 <0>        -0.1742
     23 C22        10.2274   -1.0171    2.1782 C.2       1 <0>        -0.0238
     24 C23        10.4142   -5.8624    1.3020 C.cat     1 <0>         0.6019
     25 N1         10.4947   -7.0660    1.8671 N.pl3     1 <0>        -0.7586
     26 N2         11.4866   -5.3261    0.7214 N.pl3     1 <0>        -0.7622
     27 H1         -0.9591    1.9053    0.0259 H         1 <0>         0.1237
     28 H2          1.1563    3.1654    0.0076 H         1 <0>         0.1237
     29 H3          3.3051    1.9634   -0.0196 H         1 <0>         0.1206
     30 H4          1.2231   -1.7588   -0.0176 H         1 <0>         0.1206
     31 H5         -0.9258   -0.5567    0.0082 H         1 <0>         0.1236
     32 H6          3.5884   -1.6586   -0.5549 H         1 <0>         0.0754
     33 H7          4.4573   -0.1052   -0.5563 H         1 <0>         0.0750
     34 H8          4.2941   -0.0118    1.9163 H         1 <0>         0.0839
     35 H9          3.4252   -1.5652    1.9176 H         1 <0>         0.0846
     36 H10         4.5568   -3.6039    1.3723 H         1 <0>         0.1418
     37 H11         5.8066   -5.7263    1.3412 H         1 <0>         0.1493
     38 H12         7.9302   -6.9082    1.3124 H         1 <0>         0.1373
     39 H13        10.0780   -3.1968    1.3303 H         1 <0>         0.1413
     40 H14         6.6412    0.1039    1.3783 H         1 <0>         0.1384
     41 H15         8.8946    0.6934   -0.3113 H         1 <0>         0.1581
     42 H16        11.3005    1.4632    0.3839 H         1 <0>         0.2110
     43 H17        10.3124   -1.7555    2.9617 H         1 <0>         0.2031
     44 H18        11.3341   -7.5519    1.8559 H         1 <0>         0.4325
     45 H19        11.4280   -4.4497    0.3098 H         1 <0>         0.4451
     46 H20        12.3260   -5.8121    0.7102 H         1 <0>         0.4329
     47 H21         9.7139   -7.4564    2.2899 H         1 <0>         0.4467
@<TRIPOS>BOND
     1    1    6 ar
     2    1    2 ar
     3    1   27 1
     4    2    3 ar
     5    2   28 1
     6    3    4 ar
     7    3   29 1
     8    4    5 ar
     9    4    7 1
    10    5    6 ar
    11    5   30 1
    12    6   31 1
    13    7    8 1
    14    7   32 1
    15    7   33 1
    16    8    9 1
    17    8   34 1
    18    8   35 1
    19    9   18 ar
    20    9   10 ar
    21   10   11 ar
    22   10   36 1
    23   11   16 ar
    24   11   12 ar
    25   12   13 ar
    26   12   37 1
    27   13   14 ar
    28   13   38 1
    29   14   15 ar
    30   14   24 1
    31   15   16 ar
    32   15   39 1
    33   16   17 ar
    34   17   18 ar
    35   17   19 1
    36   18   40 1
    37   19   23 2
    38   19   20 1
    39   20   21 2
    40   20   41 1
    41   21   22 1
    42   21   42 1
    43   22   23 1
    44   23   43 1
    45   24   25 2
    46   24   26 1
    47   25   44 1
    48   25   47 1
    49   26   45 1
    50   26   46 1
@<TRIPOS>MOLECULE
CHEMBL182547
   70    75     0     0     0
SMALL
USER_CHARGES

@<TRIPOS>ATOM
      1 C1         -1.3750    0.7276   -0.4366 C.3       1 <0>        -0.0742
      2 N1         -1.5027   -0.6144    0.1471 N.4       1 <0>        -0.3788
      3 C2         -2.9215   -0.9077    0.4010 C.3       1 <0>        -0.0058
      4 C3         -3.5484    0.2932    1.1104 C.3       1 <0>        -0.1051
      5 C4         -2.7058    0.6805    2.2988 C.ar      1 <0>        -0.0948
      6 C5         -3.2596    1.5041    3.2665 C.ar      1 <0>        -0.0989
      7 C6         -2.5172    1.8823    4.3673 C.ar      1 <0>        -0.0942
      8 C7         -1.2152    1.4377    4.5044 C.ar      1 <0>        -0.0321
      9 C8         -0.6635    0.6166    3.5419 C.ar      1 <0>        -0.1000
     10 C9         -1.4086    0.2342    2.4362 C.ar      1 <0>        -0.1115
     11 C10        -0.7696   -0.6695    1.4150 C.3       1 <0>         0.0805
     12 C11         0.6756   -0.2246    1.1819 C.3       1 <0>        -0.1006
     13 C12         1.1143   -0.6332   -0.2258 C.3       1 <0>        -0.1558
     14 C13         2.5594   -0.1883   -0.4590 C.3       1 <0>        -0.1145
     15 C14         3.4712   -0.8551    0.5731 C.3       1 <0>        -0.1279
     16 C15         3.0325   -0.4464    1.9807 C.3       1 <0>        -0.1204
     17 C16         1.5873   -0.8914    2.2139 C.3       1 <0>        -0.1247
     18 C17        -0.3994    1.8495    5.7028 C.3       1 <0>        -0.1093
     19 C18        -1.0628    2.7749    6.7248 C.3       1 <0>        -0.1614
     20 C19         0.0269    3.3159    5.7971 C.3       1 <0>        -0.1176
     21 C20        -0.4010    4.2379    4.6845 C.ar      1 <0>        -0.0037
     22 C21        -1.6990    4.7452    4.6748 C.ar      1 <0>        -0.1017
     23 C22        -2.1169    5.5801    3.6846 C.ar      1 <0>        -0.0886
     24 C23        -1.2282    5.9384    2.6551 C.ar      1 <0>        -0.0689
     25 C24        -1.6263    6.7973    1.6195 C.ar      1 <0>        -0.0120
     26 C25        -0.7231    7.1274    0.6239 C.ar      1 <0>        -0.1538
     27 C26         0.5838    6.6093    0.6450 C.ar      1 <0>        -0.0927
     28 C27         0.9867    5.7771    1.6388 C.ar      1 <0>        -0.0825
     29 C28         0.0925    5.4224    2.6655 C.ar      1 <0>        -0.0066
     30 C29         0.4879    4.5670    3.7074 C.ar      1 <0>        -0.1105
     31 C30        -1.1361    8.0319   -0.4710 C.cat     1 <0>         0.5973
     32 N2         -0.2713    8.3530   -1.4316 N.pl3     1 <0>        -0.7599
     33 N3         -2.3729    8.5253   -0.4964 N.pl3     1 <0>        -0.7638
     34 H1         -0.3226    0.9470   -0.6164 H         1 <0>         0.1378
     35 H2         -1.9206    0.7672   -1.3794 H         1 <0>         0.1244
     36 H3         -1.7871    1.4644    0.2529 H         1 <0>         0.1253
     37 H4         -3.4341   -1.0824   -0.5450 H         1 <0>         0.1389
     38 H5         -3.0049   -1.7911    1.0340 H         1 <0>         0.1345
     39 H6         -3.6067    1.1332    0.4183 H         1 <0>         0.1007
     40 H7         -4.5517    0.0320    1.4472 H         1 <0>         0.1218
     41 H8         -4.2765    1.8517    3.1587 H         1 <0>         0.1336
     42 H9         -2.9521    2.5242    5.1191 H         1 <0>         0.1335
     43 H10         0.3537    0.2703    3.6500 H         1 <0>         0.1493
     44 H11        -0.7739   -1.6935    1.7884 H         1 <0>         0.1449
     45 H12         0.7432    0.8586    1.2834 H         1 <0>         0.1002
     46 H13         1.0467   -1.7164   -0.3273 H         1 <0>         0.0803
     47 H14         0.4647   -0.1582   -0.9610 H         1 <0>         0.0710
     48 H15         2.8719   -0.4794   -1.4618 H         1 <0>         0.0749
     49 H16         2.6270    0.8949   -0.3574 H         1 <0>         0.0665
     50 H17         3.4036   -1.9382    0.4715 H         1 <0>         0.0684
     51 H18         4.5007   -0.5381    0.4070 H         1 <0>         0.0733
     52 H19         3.6820   -0.9215    2.7159 H         1 <0>         0.0764
     53 H20         3.1001    0.6367    2.0822 H         1 <0>         0.0658
     54 H21         1.2748   -0.6002    3.2167 H         1 <0>         0.0836
     55 H22         1.5198   -1.9745    2.1123 H         1 <0>         0.0770
     56 H23         0.2947    1.0983    6.0796 H         1 <0>         0.1287
     57 H24        -2.0893    3.0858    6.5304 H         1 <0>         0.1052
     58 H25        -0.8053    2.6325    7.7743 H         1 <0>         0.1165
     59 H26         1.0014    3.5294    6.2363 H         1 <0>         0.1325
     60 H27        -2.3833    4.4715    5.4642 H         1 <0>         0.1368
     61 H28        -3.1258    5.9652    3.6892 H         1 <0>         0.1401
     62 H29        -2.6293    7.1973    1.5991 H         1 <0>         0.1414
     63 H30         1.2760    6.8767   -0.1398 H         1 <0>         0.1353
     64 H31         1.9938    5.3869    1.6412 H         1 <0>         0.1478
     65 H32         1.4918    4.1693    3.7312 H         1 <0>         0.1399
     66 H33         0.6295    7.9936   -1.4131 H         1 <0>         0.4446
     67 H34        -3.0028    8.2915    0.2032 H         1 <0>         0.4428
     68 H35        -2.6438    9.1185   -1.2145 H         1 <0>         0.4355
     69 H36        -0.5422    8.9462   -2.1497 H         1 <0>         0.4350
     70 H37        -1.1244   -1.2977   -0.4917 H         1 <0>         0.4302
@<TRIPOS>BOND
     1    1    2 1
     2    1   34 1
     3    1   35 1
     4    1   36 1
     5    2   11 1
     6    2    3 1
     7    2   70 1
     8    3    4 1
     9    3   37 1
    10    3   38 1
    11    4    5 1
    12    4   39 1
    13    4   40 1
    14    5   10 ar
    15    5    6 ar
    16    6    7 ar
    17    6   41 1
    18    7    8 ar
    19    7   42 1
    20    8    9 ar
    21    8   18 1
    22    9   10 ar
    23    9   43 1
    24   10   11 1
    25   11   12 1
    26   11   44 1
    27   12   17 1
    28   12   13 1
    29   12   45 1
    30   13   14 1
    31   13   46 1
    32   13   47 1
    33   14   15 1
    34   14   48 1
    35   14   49 1
    36   15   16 1
    37   15   50 1
    38   15   51 1
    39   16   17 1
    40   16   52 1
    41   16   53 1
    42   17   54 1
    43   17   55 1
    44   18   20 1
    45   18   19 1
    46   18   56 1
    47   19   20 1
    48   19   57 1
    49   19   58 1
    50   20   21 1
    51   20   59 1
    52   21   30 ar
    53   21   22 ar
    54   22   23 ar
    55   22   60 1
    56   23   24 ar
    57   23   61 1
    58   24   29 ar
    59   24   25 ar
    60   25   26 ar
    61   25   62 1
    62   26   27 ar
    63   26   31 1
    64   27   28 ar
    65   27   63 1
    66   28   29 ar
    67   28   64 1
    68   29   30 ar
    69   30   65 1
    70   31   32 2
    71   31   33 1
    72   32   66 1
    73   32   69 1
    74   33   67 1
    75   33   68 1
@<TRIPOS>MOLECULE
CHEMBL182547__1
   70    75     0     0     0
SMALL
USER_CHARGES

@<TRIPOS>ATOM
      1 C1         -0.1610    1.7031    0.7748 C.3       1 <0>        -0.0641
      2 N1         -0.1557    0.3072    0.3172 N.4       1 <0>        -0.3784
      3 C2         -1.5221   -0.2344    0.3737 C.3       1 <0>        -0.0036
      4 C3         -2.1310    0.1188    1.7312 C.3       1 <0>        -0.1085
      5 C4         -1.1874   -0.2869    2.8345 C.ar      1 <0>        -0.0878
      6 C5         -1.6766   -0.3764    4.1284 C.ar      1 <0>        -0.1064
      7 C6         -0.8413   -0.7419    5.1651 C.ar      1 <0>        -0.0926
      8 C7          0.4892   -1.0193    4.9112 C.ar      1 <0>        -0.0504
      9 C8          0.9766   -0.9317    3.6229 C.ar      1 <0>        -0.1582
     10 C9          0.1384   -0.5663    2.5798 C.ar      1 <0>        -0.1246
     11 C10         0.7106   -0.4915    1.1889 C.3       1 <0>         0.0812
     12 C11         2.0976    0.1518    1.2480 C.3       1 <0>        -0.1090
     13 C12         2.9300   -0.3201    0.0541 C.3       1 <0>        -0.1256
     14 C13         4.3169    0.3232    0.1132 C.3       1 <0>        -0.1214
     15 C14         5.0131   -0.0843    1.4133 C.3       1 <0>        -0.1276
     16 C15         4.1807    0.3876    2.6071 C.3       1 <0>        -0.1246
     17 C16         2.7938   -0.2557    2.5480 C.3       1 <0>        -0.1503
     18 C17         1.4059   -1.4164    6.0395 C.3       1 <0>        -0.1028
     19 C18         0.7694   -1.6916    7.4033 C.3       1 <0>        -0.1604
     20 C19         1.5898   -0.4187    7.1848 C.3       1 <0>        -0.1145
     21 C20         2.9482   -0.3464    7.8333 C.ar      1 <0>        -0.0106
     22 C21         3.4818   -1.4836    8.4369 C.ar      1 <0>        -0.1076
     23 C22         4.7057   -1.4518    9.0311 C.ar      1 <0>        -0.0844
     24 C23         5.4454   -0.2556    9.0375 C.ar      1 <0>        -0.0697
     25 C24         6.7105   -0.1883    9.6407 C.ar      1 <0>        -0.0107
     26 C25         7.4086    1.0068    9.6264 C.ar      1 <0>        -0.1528
     27 C26         6.8596    2.1472    9.0140 C.ar      1 <0>        -0.0907
     28 C27         5.6373    2.1009    8.4254 C.ar      1 <0>        -0.0824
     29 C28         4.9025    0.9012    8.4229 C.ar      1 <0>        -0.0069
     30 C29         3.6377    0.8273    7.8157 C.ar      1 <0>        -0.1105
     31 C30         8.7424    1.0850   10.2608 C.cat     1 <0>         0.5983
     32 N2          9.4187    2.2323   10.2501 N.pl3     1 <0>        -0.7598
     33 N3          9.2672    0.0082   10.8428 N.pl3     1 <0>        -0.7633
     34 H1          0.8534    2.1005    0.7405 H         1 <0>         0.1273
     35 H2         -0.8056    2.2958    0.1257 H         1 <0>         0.1279
     36 H3         -0.5346    1.7487    1.7977 H         1 <0>         0.1275
     37 H4         -2.1231    0.2050   -0.4225 H         1 <0>         0.1394
     38 H5         -1.4914   -1.3178    0.2571 H         1 <0>         0.1332
     39 H6         -2.3065    1.1934    1.7812 H         1 <0>         0.1045
     40 H7         -3.0776   -0.4081    1.8519 H         1 <0>         0.1222
     41 H8         -2.7158   -0.1590    4.3264 H         1 <0>         0.1343
     42 H9         -1.2261   -0.8105    6.1719 H         1 <0>         0.1337
     43 H10         2.0162   -1.1482    3.4259 H         1 <0>         0.2119
     44 H11         0.7994   -1.4988    0.7820 H         1 <0>         0.1444
     45 H12         1.9967    1.2366    1.2144 H         1 <0>         0.1020
     46 H13         3.0309   -1.4049    0.0876 H         1 <0>         0.0790
     47 H14         2.4340   -0.0298   -0.8721 H         1 <0>         0.0647
     48 H15         4.9099   -0.0131   -0.7373 H         1 <0>         0.0751
     49 H16         4.2160    1.4080    0.0797 H         1 <0>         0.0665
     50 H17         5.1140   -1.1691    1.4468 H         1 <0>         0.0665
     51 H18         6.0012    0.3740    1.4554 H         1 <0>         0.0700
     52 H19         4.6767    0.0973    3.5333 H         1 <0>         0.0711
     53 H20         4.0798    1.4724    2.5736 H         1 <0>         0.0672
     54 H21         2.2008    0.0805    3.3986 H         1 <0>         0.1218
     55 H22         2.8947   -1.3405    2.5816 H         1 <0>         0.0929
     56 H23         2.2676   -2.0202    5.7548 H         1 <0>         0.1210
     57 H24        -0.3123   -1.5854    7.4845 H         1 <0>         0.1103
     58 H25         1.2123   -2.4767    8.0162 H         1 <0>         0.1108
     59 H26         1.0477    0.5249    7.1222 H         1 <0>         0.1227
     60 H27         2.9156   -2.4033    8.4333 H         1 <0>         0.1387
     61 H28         5.1067   -2.3404    9.4958 H         1 <0>         0.1417
     62 H29         7.1358   -1.0617   10.1126 H         1 <0>         0.1427
     63 H30         7.4175    3.0719    9.0121 H         1 <0>         0.1360
     64 H31         5.2287    2.9853    7.9593 H         1 <0>         0.1482
     65 H32         3.2127    1.6988    7.3400 H         1 <0>         0.1392
     66 H33         9.0365    3.0166    9.8262 H         1 <0>         0.4445
     67 H34         8.7746   -0.8274   10.8506 H         1 <0>         0.4430
     68 H35        10.1419    0.0595   11.2589 H         1 <0>         0.4352
     69 H36        10.2934    2.2836   10.6662 H         1 <0>         0.4346
     70 H37         0.1871    0.2639   -0.6308 H         1 <0>         0.4292
@<TRIPOS>BOND
     1    1    2 1
     2    1   34 1
     3    1   35 1
     4    1   36 1
     5    2   11 1
     6    2    3 1
     7    2   70 1
     8    3    4 1
     9    3   37 1
    10    3   38 1
    11    4    5 1
    12    4   39 1
    13    4   40 1
    14    5   10 ar
    15    5    6 ar
    16    6    7 ar
    17    6   41 1
    18    7    8 ar
    19    7   42 1
    20    8    9 ar
    21    8   18 1
    22    9   10 ar
    23    9   43 1
    24   10   11 1
    25   11   12 1
    26   11   44 1
    27   12   17 1
    28   12   13 1
    29   12   45 1
    30   13   14 1
    31   13   46 1
    32   13   47 1
    33   14   15 1
    34   14   48 1
    35   14   49 1
    36   15   16 1
    37   15   50 1
    38   15   51 1
    39   16   17 1
    40   16   52 1
    41   16   53 1
    42   17   54 1
    43   17   55 1
    44   18   20 1
    45   18   19 1
    46   18   56 1
    47   19   20 1
    48   19   57 1
    49   19   58 1
    50   20   21 1
    51   20   59 1
    52   21   30 ar
    53   21   22 ar
    54   22   23 ar
    55   22   60 1
    56   23   24 ar
    57   23   61 1
    58   24   29 ar
    59   24   25 ar
    60   25   26 ar
    61   25   62 1
    62   26   27 ar
    63   26   31 1
    64   27   28 ar
    65   27   63 1
    66   28   29 ar
    67   28   64 1
    68   29   30 ar
    69   30   65 1
    70   31   32 2
    71   31   33 1
    72   32   66 1
    73   32   69 1
    74   33   67 1
    75   33   68 1
@<TRIPOS>MOLECULE
CHEMBL182547__2
   70    75     0     0     0
SMALL
USER_CHARGES

@<TRIPOS>ATOM
      1 C1         -0.1610    1.7031    0.7748 C.3       1 <0>        -0.0647
      2 N1         -0.1557    0.3072    0.3172 N.4       1 <0>        -0.3785
      3 C2         -1.5221   -0.2344    0.3737 C.3       1 <0>        -0.0031
      4 C3         -2.1310    0.1188    1.7312 C.3       1 <0>        -0.1088
      5 C4         -1.1874   -0.2869    2.8345 C.ar      1 <0>        -0.0876
      6 C5         -1.6766   -0.3764    4.1284 C.ar      1 <0>        -0.1067
      7 C6         -0.8413   -0.7419    5.1651 C.ar      1 <0>        -0.0926
      8 C7          0.4892   -1.0193    4.9112 C.ar      1 <0>        -0.0508
      9 C8          0.9766   -0.9317    3.6229 C.ar      1 <0>        -0.1579
     10 C9          0.1384   -0.5663    2.5798 C.ar      1 <0>        -0.1251
     11 C10         0.7106   -0.4915    1.1889 C.3       1 <0>         0.0821
     12 C11         2.0976    0.1518    1.2480 C.3       1 <0>        -0.1102
     13 C12         2.9300   -0.3201    0.0541 C.3       1 <0>        -0.1242
     14 C13         4.3169    0.3232    0.1132 C.3       1 <0>        -0.1222
     15 C14         5.0131   -0.0843    1.4133 C.3       1 <0>        -0.1269
     16 C15         4.1807    0.3876    2.6071 C.3       1 <0>        -0.1276
     17 C16         2.7938   -0.2557    2.5480 C.3       1 <0>        -0.1493
     18 C17         1.4059   -1.4164    6.0395 C.3       1 <0>        -0.1027
     19 C18         0.8628   -1.3004    7.4651 C.3       1 <0>        -0.1614
     20 C19         1.0504   -2.6786    6.8278 C.3       1 <0>        -0.1133
     21 C20         2.1886   -3.5287    7.3306 C.ar      1 <0>        -0.0116
     22 C21         3.1192   -2.9788    8.2102 C.ar      1 <0>        -0.1075
     23 C22         4.1585   -3.7194    8.6828 C.ar      1 <0>        -0.0849
     24 C23         4.2980   -5.0597    8.2798 C.ar      1 <0>        -0.0697
     25 C24         5.3574   -5.8515    8.7483 C.ar      1 <0>        -0.0111
     26 C25         5.4611   -7.1666    8.3294 C.ar      1 <0>        -0.1527
     27 C26         4.5157   -7.7100    7.4419 C.ar      1 <0>        -0.0909
     28 C27         3.4842   -6.9592    6.9782 C.ar      1 <0>        -0.0819
     29 C28         3.3508   -5.6190    7.3851 C.ar      1 <0>        -0.0072
     30 C29         2.2889   -4.8237    6.9229 C.ar      1 <0>        -0.1097
     31 C30         6.5756   -8.0069    8.8190 C.cat     1 <0>         0.5985
     32 N2          6.6804   -9.2729    8.4193 N.pl3     1 <0>        -0.7597
     33 N3          7.4743   -7.4974    9.6595 N.pl3     1 <0>        -0.7636
     34 H1          0.8534    2.1005    0.7405 H         1 <0>         0.1283
     35 H2         -0.8056    2.2958    0.1257 H         1 <0>         0.1282
     36 H3         -0.5346    1.7487    1.7977 H         1 <0>         0.1279
     37 H4         -2.1231    0.2050   -0.4225 H         1 <0>         0.1392
     38 H5         -1.4914   -1.3178    0.2571 H         1 <0>         0.1322
     39 H6         -2.3065    1.1934    1.7812 H         1 <0>         0.1051
     40 H7         -3.0776   -0.4081    1.8519 H         1 <0>         0.1217
     41 H8         -2.7158   -0.1590    4.3264 H         1 <0>         0.1342
     42 H9         -1.2261   -0.8105    6.1719 H         1 <0>         0.1336
     43 H10         2.0162   -1.1482    3.4259 H         1 <0>         0.2121
     44 H11         0.7994   -1.4988    0.7820 H         1 <0>         0.1432
     45 H12         1.9967    1.2366    1.2144 H         1 <0>         0.1031
     46 H13         3.0309   -1.4049    0.0876 H         1 <0>         0.0775
     47 H14         2.4340   -0.0298   -0.8721 H         1 <0>         0.0644
     48 H15         4.9099   -0.0131   -0.7373 H         1 <0>         0.0748
     49 H16         4.2160    1.4080    0.0797 H         1 <0>         0.0677
     50 H17         5.1140   -1.1691    1.4468 H         1 <0>         0.0649
     51 H18         6.0012    0.3740    1.4554 H         1 <0>         0.0716
     52 H19         4.6767    0.0973    3.5333 H         1 <0>         0.0729
     53 H20         4.0798    1.4724    2.5736 H         1 <0>         0.0695
     54 H21         2.2008    0.0805    3.3986 H         1 <0>         0.1211
     55 H22         2.8947   -1.3405    2.5816 H         1 <0>         0.0918
     56 H23         2.4631   -1.2011    5.8842 H         1 <0>         0.1204
     57 H24         1.5627   -1.0085    8.2481 H         1 <0>         0.1106
     58 H25        -0.1575   -0.9368    7.5870 H         1 <0>         0.1101
     59 H26         0.1534   -3.2218    6.5303 H         1 <0>         0.1232
     60 H27         3.0143   -1.9498    8.5211 H         1 <0>         0.1385
     61 H28         4.8728   -3.2802    9.3634 H         1 <0>         0.1416
     62 H29         6.0861   -5.4381    9.4299 H         1 <0>         0.1427
     63 H30         4.6115   -8.7379    7.1247 H         1 <0>         0.1361
     64 H31         2.7661   -7.3906    6.2966 H         1 <0>         0.1487
     65 H32         1.5573   -5.2368    6.2443 H         1 <0>         0.1398
     66 H33         6.0258   -9.6440    7.8071 H         1 <0>         0.4447
     67 H34         7.3980   -6.5752    9.9506 H         1 <0>         0.4429
     68 H35         8.2052   -8.0484    9.9805 H         1 <0>         0.4351
     69 H36         7.4113   -9.8240    8.7404 H         1 <0>         0.4346
     70 H37         0.1871    0.2639   -0.6308 H         1 <0>         0.4290
@<TRIPOS>BOND
     1    1    2 1
     2    1   34 1
     3    1   35 1
     4    1   36 1
     5    2   11 1
     6    2    3 1
     7    2   70 1
     8    3    4 1
     9    3   37 1
    10    3   38 1
    11    4    5 1
    12    4   39 1
    13    4   40 1
    14    5   10 ar
    15    5    6 ar
    16    6    7 ar
    17    6   41 1
    18    7    8 ar
    19    7   42 1
    20    8    9 ar
    21    8   18 1
    22    9   10 ar
    23    9   43 1
    24   10   11 1
    25   11   12 1
    26   11   44 1
    27   12   17 1
    28   12   13 1
    29   12   45 1
    30   13   14 1
    31   13   46 1
    32   13   47 1
    33   14   15 1
    34   14   48 1
    35   14   49 1
    36   15   16 1
    37   15   50 1
    38   15   51 1
    39   16   17 1
    40   16   52 1
    41   16   53 1
    42   17   54 1
    43   17   55 1
    44   18   20 1
    45   18   19 1
    46   18   56 1
    47   19   20 1
    48   19   57 1
    49   19   58 1
    50   20   21 1
    51   20   59 1
    52   21   30 ar
    53   21   22 ar
    54   22   23 ar
    55   22   60 1
    56   23   24 ar
    57   23   61 1
    58   24   29 ar
    59   24   25 ar
    60   25   26 ar
    61   25   62 1
    62   26   27 ar
    63   26   31 1
    64   27   28 ar
    65   27   63 1
    66   28   29 ar
    67   28   64 1
    68   29   30 ar
    69   30   65 1
    70   31   32 2
    71   31   33 1
    72   32   66 1
    73   32   69 1
    74   33   67 1
    75   33   68 1
@<TRIPOS>MOLECULE
CHEMBL182547__3
   70    75     0     0     0
SMALL
USER_CHARGES

@<TRIPOS>ATOM
      1 C1         -0.6968    1.7444   -0.6928 C.3       1 <0>        -0.0770
      2 N1         -0.7477    0.3286   -0.3045 N.4       1 <0>        -0.3790
      3 C2         -2.1474   -0.0772   -0.1054 C.3       1 <0>        -0.0039
      4 C3         -2.8417    0.9746    0.7607 C.3       1 <0>        -0.1069
      5 C4         -2.0223    1.2378    1.9983 C.ar      1 <0>        -0.0947
      6 C5         -2.6221    1.8844    3.0677 C.ar      1 <0>        -0.0998
      7 C6         -1.9023    2.1453    4.2165 C.ar      1 <0>        -0.0931
      8 C7         -0.5770    1.7601    4.3001 C.ar      1 <0>        -0.0320
      9 C8          0.0204    1.1150    3.2361 C.ar      1 <0>        -0.0990
     10 C9         -0.7018    0.8506    2.0818 C.ar      1 <0>        -0.1108
     11 C10        -0.0124    0.1371    0.9489 C.3       1 <0>         0.0827
     12 C11         1.4050    0.6913    0.7920 C.3       1 <0>        -0.1056
     13 C12         2.3557   -0.0699    1.7180 C.3       1 <0>        -0.1206
     14 C13         3.7731    0.4843    1.5611 C.3       1 <0>        -0.1228
     15 C14         4.2294    0.3147    0.1106 C.3       1 <0>        -0.1267
     16 C15         3.2787    1.0759   -0.8154 C.3       1 <0>        -0.1175
     17 C16         1.8613    0.5217   -0.6585 C.3       1 <0>        -0.1534
     18 C17         0.2141    2.0446    5.5508 C.3       1 <0>        -0.1097
     19 C18        -0.5195    2.7167    6.7131 C.3       1 <0>        -0.1620
     20 C19        -0.1329    1.2392    6.8046 C.3       1 <0>        -0.1165
     21 C20        -1.2395    0.2223    6.6943 C.ar      1 <0>        -0.0058
     22 C21        -0.9221   -1.1147    6.4619 C.ar      1 <0>        -0.0943
     23 C22        -1.8977   -2.0578    6.3571 C.ar      1 <0>        -0.0906
     24 C23        -3.2467   -1.6810    6.4853 C.ar      1 <0>        -0.0686
     25 C24        -4.2771   -2.6278    6.3833 C.ar      1 <0>        -0.0133
     26 C25        -5.5928   -2.2188    6.5154 C.ar      1 <0>        -0.1527
     27 C26        -5.9002   -0.8670    6.7500 C.ar      1 <0>        -0.0916
     28 C27        -4.9166    0.0630    6.8517 C.ar      1 <0>        -0.0821
     29 C28        -3.5693   -0.3207    6.7222 C.ar      1 <0>        -0.0049
     30 C29        -2.5337    0.6227    6.8288 C.ar      1 <0>        -0.1161
     31 C30        -6.6841   -3.2114    6.4084 C.cat     1 <0>         0.5976
     32 N2         -7.9518   -2.8236    6.5347 N.pl3     1 <0>        -0.7591
     33 N3         -6.3989   -4.4931    6.1858 N.pl3     1 <0>        -0.7644
     34 H1          0.3309    2.1019   -0.6292 H         1 <0>         0.1382
     35 H2         -1.0569    1.8538   -1.7158 H         1 <0>         0.1280
     36 H3         -1.3267    2.3281   -0.0216 H         1 <0>         0.1295
     37 H4         -2.6493   -0.1457   -1.0706 H         1 <0>         0.1384
     38 H5         -2.1802   -1.0442    0.3965 H         1 <0>         0.1297
     39 H6         -2.9479    1.8990    0.1930 H         1 <0>         0.1066
     40 H7         -3.8283    0.6124    1.0495 H         1 <0>         0.1179
     41 H8         -3.6571    2.1857    3.0018 H         1 <0>         0.1323
     42 H9         -2.3730    2.6494    5.0476 H         1 <0>         0.1323
     43 H10         1.0558    0.8150    3.3025 H         1 <0>         0.1490
     44 H11         0.0418   -0.9279    1.1747 H         1 <0>         0.1416
     45 H12         1.4125    1.7494    1.0538 H         1 <0>         0.1036
     46 H13         2.0307    0.0510    2.7514 H         1 <0>         0.0813
     47 H14         2.3483   -1.1280    1.4562 H         1 <0>         0.0745
     48 H15         3.7806    1.5424    1.8229 H         1 <0>         0.0686
     49 H16         4.4504   -0.0580    2.2209 H         1 <0>         0.0755
     50 H17         5.2392    0.7095   -0.0012 H         1 <0>         0.0741
     51 H18         4.2220   -0.7434   -0.1512 H         1 <0>         0.0665
     52 H19         3.2862    2.1340   -0.5536 H         1 <0>         0.0702
     53 H20         3.6038    0.9550   -1.8488 H         1 <0>         0.0760
     54 H21         1.8538   -0.5364   -0.9203 H         1 <0>         0.0778
     55 H22         1.1840    1.0640   -1.3183 H         1 <0>         0.0714
     56 H23         1.2602    2.3084    5.3956 H         1 <0>         0.1287
     57 H24         0.0440    3.4231    7.3228 H         1 <0>         0.1162
     58 H25        -1.5743    2.9532    6.5732 H         1 <0>         0.1041
     59 H26         0.6850    0.9736    7.4744 H         1 <0>         0.1332
     60 H27         0.1130   -1.4065    6.3631 H         1 <0>         0.1364
     61 H28        -1.6374   -3.0902    6.1762 H         1 <0>         0.1394
     62 H29        -4.0456   -3.6671    6.2027 H         1 <0>         0.1410
     63 H30        -6.9321   -0.5646    6.8502 H         1 <0>         0.1360
     64 H31        -5.1685    1.0977    7.0318 H         1 <0>         0.1483
     65 H32        -2.7634    1.6618    7.0132 H         1 <0>         0.1398
     66 H33        -8.1596   -1.8900    6.6969 H         1 <0>         0.4450
     67 H34        -5.4755   -4.7756    6.0938 H         1 <0>         0.4424
     68 H35        -7.1145   -5.1442    6.1157 H         1 <0>         0.4352
     69 H36        -8.6675   -3.4746    6.4646 H         1 <0>         0.4349
     70 H37        -0.3311   -0.2356   -1.0299 H         1 <0>         0.4302
@<TRIPOS>BOND
     1    1    2 1
     2    1   34 1
     3    1   35 1
     4    1   36 1
     5    2   11 1
     6    2    3 1
     7    2   70 1
     8    3    4 1
     9    3   37 1
    10    3   38 1
    11    4    5 1
    12    4   39 1
    13    4   40 1
    14    5   10 ar
    15    5    6 ar
    16    6    7 ar
    17    6   41 1
    18    7    8 ar
    19    7   42 1
    20    8    9 ar
    21    8   18 1
    22    9   10 ar
    23    9   43 1
    24   10   11 1
    25   11   12 1
    26   11   44 1
    27   12   17 1
    28   12   13 1
    29   12   45 1
    30   13   14 1
    31   13   46 1
    32   13   47 1
    33   14   15 1
    34   14   48 1
    35   14   49 1
    36   15   16 1
    37   15   50 1
    38   15   51 1
    39   16   17 1
    40   16   52 1
    41   16   53 1
    42   17   54 1
    43   17   55 1
    44   18   20 1
    45   18   19 1
    46   18   56 1
    47   19   20 1
    48   19   57 1
    49   19   58 1
    50   20   21 1
    51   20   59 1
    52   21   30 ar
    53   21   22 ar
    54   22   23 ar
    55   22   60 1
    56   23   24 ar
    57   23   61 1
    58   24   29 ar
    59   24   25 ar
    60   25   26 ar
    61   25   62 1
    62   26   27 ar
    63   26   31 1
    64   27   28 ar
    65   27   63 1
    66   28   29 ar
    67   28   64 1
    68   29   30 ar
    69   30   65 1
    70   31   32 2
    71   31   33 1
    72   32   66 1
    73   32   69 1
    74   33   67 1
    75   33   68 1
@<TRIPOS>MOLECULE
CHEMBL182547__4
   70    75     0     0     0
SMALL
USER_CHARGES

@<TRIPOS>ATOM
      1 C1         -0.6803    1.4182    0.3652 C.3       1 <0>        -0.0599
      2 N1         -0.3714   -0.0179    0.3711 N.4       1 <0>        -0.3844
      3 C2         -1.6222   -0.7906    0.3296 C.3       1 <0>        -0.0042
      4 C3         -1.2836   -2.2510    0.0279 C.3       1 <0>        -0.1068
      5 C4         -0.2125   -2.7320    0.9734 C.ar      1 <0>        -0.0923
      6 C5         -0.0057   -4.0963    1.1051 C.ar      1 <0>        -0.0988
      7 C6          0.9684   -4.5738    1.9590 C.ar      1 <0>        -0.0922
      8 C7          1.7410   -3.6869    2.6857 C.ar      1 <0>        -0.0322
      9 C8          1.5346   -2.3283    2.5560 C.ar      1 <0>        -0.0849
     10 C9          0.5553   -1.8468    1.6998 C.ar      1 <0>        -0.1167
     11 C10         0.3589   -0.3574    1.5957 C.3       1 <0>         0.0867
     12 C11         1.7250    0.3313    1.5758 C.3       1 <0>        -0.1090
     13 C12         1.5670    1.7903    2.0084 C.3       1 <0>        -0.1407
     14 C13         2.9331    2.4790    1.9884 C.3       1 <0>        -0.1225
     15 C14         3.5100    2.4266    0.5723 C.3       1 <0>        -0.1272
     16 C15         3.6680    0.9675    0.1397 C.3       1 <0>        -0.1177
     17 C16         2.3019    0.2789    0.1597 C.3       1 <0>        -0.1341
     18 C17         2.8065   -4.2027    3.6182 C.3       1 <0>        -0.1101
     19 C18         2.9633   -5.7196    3.7417 C.3       1 <0>        -0.1612
     20 C19         2.3463   -4.9184    4.8898 C.3       1 <0>        -0.1170
     21 C20         0.8622   -5.0536    5.1138 C.ar      1 <0>        -0.0053
     22 C21         0.1764   -6.1229    4.5408 C.ar      1 <0>        -0.1015
     23 C22        -1.1637   -6.2738    4.7238 C.ar      1 <0>        -0.0880
     24 C23        -1.8695   -5.3390    5.5023 C.ar      1 <0>        -0.0686
     25 C24        -3.2512   -5.4650    5.7115 C.ar      1 <0>        -0.0115
     26 C25        -3.9111   -4.5251    6.4842 C.ar      1 <0>        -0.1539
     27 C26        -3.2079   -3.4508    7.0571 C.ar      1 <0>        -0.0926
     28 C27        -1.8712   -3.3127    6.8657 C.ar      1 <0>        -0.0825
     29 C28        -1.1714   -4.2513    6.0855 C.ar      1 <0>        -0.0066
     30 C29         0.2130   -4.1324    5.8775 C.ar      1 <0>        -0.1096
     31 C30        -5.3676   -4.6516    6.7084 C.cat     1 <0>         0.5977
     32 N2         -6.0078   -3.7502    7.4509 N.pl3     1 <0>        -0.7600
     33 N3         -6.0389   -5.6669    6.1678 N.pl3     1 <0>        -0.7637
     34 H1          0.1794    1.9733   -0.0101 H         1 <0>         0.1341
     35 H2         -1.5407    1.6021   -0.2783 H         1 <0>         0.1277
     36 H3         -0.9090    1.7449    1.3797 H         1 <0>         0.1270
     37 H4         -2.1260   -0.7235    1.2939 H         1 <0>         0.1290
     38 H5         -2.2703   -0.3961   -0.4530 H         1 <0>         0.1385
     39 H6         -2.1771   -2.8631    0.1509 H         1 <0>         0.1208
     40 H7         -0.9258   -2.3356   -0.9982 H         1 <0>         0.1043
     41 H8         -0.6094   -4.7888    0.5374 H         1 <0>         0.1339
     42 H9          1.1262   -5.6375    2.0595 H         1 <0>         0.1336
     43 H10         2.1386   -1.6365    3.1244 H         1 <0>         0.1353
     44 H11        -0.2064   -0.0081    2.4598 H         1 <0>         0.1420
     45 H12         2.3998   -0.1801    2.2622 H         1 <0>         0.1200
     46 H13         0.8922    2.3018    1.3220 H         1 <0>         0.0763
     47 H14         1.1559    1.8277    3.0172 H         1 <0>         0.0760
     48 H15         2.8205    3.5185    2.2966 H         1 <0>         0.0750
     49 H16         3.6079    1.9676    2.6749 H         1 <0>         0.0696
     50 H17         2.8352    2.9380   -0.1141 H         1 <0>         0.0632
     51 H18         4.4832    2.9172    0.5581 H         1 <0>         0.0752
     52 H19         4.0791    0.9302   -0.8691 H         1 <0>         0.0754
     53 H20         4.3428    0.4561    0.8262 H         1 <0>         0.0727
     54 H21         2.4145   -0.7606   -0.1485 H         1 <0>         0.0780
     55 H22         1.6271    0.7903   -0.5267 H         1 <0>         0.0564
     56 H23         3.7101   -3.5962    3.6810 H         1 <0>         0.1283
     57 H24         2.2958   -6.3445    3.1483 H         1 <0>         0.1052
     58 H25         3.9702   -6.1114    3.8855 H         1 <0>         0.1159
     59 H26         2.9473   -4.7831    5.7890 H         1 <0>         0.1328
     60 H27         0.7161   -6.8421    3.9426 H         1 <0>         0.1370
     61 H28        -1.6826   -7.1069    4.2732 H         1 <0>         0.1405
     62 H29        -3.7953   -6.2884    5.2730 H         1 <0>         0.1417
     63 H30        -3.7382   -2.7260    7.6570 H         1 <0>         0.1352
     64 H31        -1.3449   -2.4819    7.3121 H         1 <0>         0.1476
     65 H32         0.7591   -3.3116    6.3185 H         1 <0>         0.1393
     66 H33        -5.5189   -3.0108    7.8446 H         1 <0>         0.4445
     67 H34        -5.5726   -6.3234    5.6270 H         1 <0>         0.4429
     68 H35        -6.9941   -5.7499    6.3148 H         1 <0>         0.4354
     69 H36        -6.9630   -3.8332    7.5979 H         1 <0>         0.4348
     70 H37         0.1941   -0.2449   -0.4331 H         1 <0>         0.4263
@<TRIPOS>BOND
     1    1    2 1
     2    1   34 1
     3    1   35 1
     4    1   36 1
     5    2   11 1
     6    2    3 1
     7    2   70 1
     8    3    4 1
     9    3   37 1
    10    3   38 1
    11    4    5 1
    12    4   39 1
    13    4   40 1
    14    5   10 ar
    15    5    6 ar
    16    6    7 ar
    17    6   41 1
    18    7    8 ar
    19    7   42 1
    20    8    9 ar
    21    8   18 1
    22    9   10 ar
    23    9   43 1
    24   10   11 1
    25   11   12 1
    26   11   44 1
    27   12   17 1
    28   12   13 1
    29   12   45 1
    30   13   14 1
    31   13   46 1
    32   13   47 1
    33   14   15 1
    34   14   48 1
    35   14   49 1
    36   15   16 1
    37   15   50 1
    38   15   51 1
    39   16   17 1
    40   16   52 1
    41   16   53 1
    42   17   54 1
    43   17   55 1
    44   18   20 1
    45   18   19 1
    46   18   56 1
    47   19   20 1
    48   19   57 1
    49   19   58 1
    50   20   21 1
    51   20   59 1
    52   21   30 ar
    53   21   22 ar
    54   22   23 ar
    55   22   60 1
    56   23   24 ar
    57   23   61 1
    58   24   29 ar
    59   24   25 ar
    60   25   26 ar
    61   25   62 1
    62   26   27 ar
    63   26   31 1
    64   27   28 ar
    65   27   63 1
    66   28   29 ar
    67   28   64 1
    68   29   30 ar
    69   30   65 1
    70   31   32 2
    71   31   33 1
    72   32   66 1
    73   32   69 1
    74   33   67 1
    75   33   68 1
@<TRIPOS>MOLECULE
CHEMBL182547__5
   70    75     0     0     0
SMALL
USER_CHARGES

@<TRIPOS>ATOM
      1 C1         -0.0038    1.2306   -0.3337 C.3       1 <0>        -0.0599
      2 N1          0.0470   -0.2184   -0.0975 N.4       1 <0>        -0.3842
      3 C2         -1.3189   -0.7384    0.0675 C.3       1 <0>        -0.0054
      4 C3         -1.2705   -2.2655    0.0038 C.3       1 <0>        -0.1083
      5 C4         -0.2214   -2.7826    0.9547 C.ar      1 <0>        -0.0894
      6 C5         -0.2469   -4.1227    1.3081 C.ar      1 <0>        -0.0964
      7 C6          0.6996   -4.6328    2.1741 C.ar      1 <0>        -0.0950
      8 C7          1.6774   -3.8029    2.6907 C.ar      1 <0>        -0.0387
      9 C8          1.7026   -2.4681    2.3402 C.ar      1 <0>        -0.0860
     10 C9          0.7514   -1.9536    1.4716 C.ar      1 <0>        -0.1173
     11 C10         0.8116   -0.4897    1.1232 C.3       1 <0>         0.0857
     12 C11         2.2704   -0.0827    0.9056 C.3       1 <0>        -0.1079
     13 C12         2.4077    1.4319    1.0735 C.3       1 <0>        -0.1428
     14 C13         3.8664    1.8389    0.8559 C.3       1 <0>        -0.1214
     15 C14         4.3020    1.4406   -0.5556 C.3       1 <0>        -0.1273
     16 C15         4.1646   -0.0739   -0.7235 C.3       1 <0>        -0.1169
     17 C16         2.7059   -0.4810   -0.5060 C.3       1 <0>        -0.1344
     18 C17         2.7138   -4.3548    3.6353 C.3       1 <0>        -0.1057
     19 C18         2.7578   -5.8720    3.8276 C.3       1 <0>        -0.1597
     20 C19         2.2186   -4.9748    4.9434 C.3       1 <0>        -0.1128
     21 C20         3.0783   -4.7946    6.1680 C.ar      1 <0>        -0.0123
     22 C21         4.3840   -5.2818    6.1676 C.ar      1 <0>        -0.1075
     23 C22         5.1861   -5.1354    7.2571 C.ar      1 <0>        -0.0848
     24 C23         4.6934   -4.4830    8.4016 C.ar      1 <0>        -0.0696
     25 C24         5.4939   -4.3146    9.5416 C.ar      1 <0>        -0.0110
     26 C25         4.9738   -3.6669   10.6488 C.ar      1 <0>        -0.1526
     27 C26         3.6550   -3.1796   10.6369 C.ar      1 <0>        -0.0908
     28 C27         2.8660   -3.3332    9.5431 C.ar      1 <0>        -0.0818
     29 C28         3.3650   -3.9871    8.4016 C.ar      1 <0>        -0.0074
     30 C29         2.5693   -4.1535    7.2558 C.ar      1 <0>        -0.1095
     31 C30         5.8118   -3.4864   11.8541 C.cat     1 <0>         0.5985
     32 N2          5.3167   -2.8639   12.9223 N.pl3     1 <0>        -0.7597
     33 N3          7.0616   -3.9463   11.8712 N.pl3     1 <0>        -0.7635
     34 H1          0.9022    1.5464   -0.8509 H         1 <0>         0.1329
     35 H2         -0.8735    1.4686   -0.9462 H         1 <0>         0.1284
     36 H3         -0.0778    1.7520    0.6206 H         1 <0>         0.1275
     37 H4         -1.7157   -0.4248    1.0330 H         1 <0>         0.1324
     38 H5         -1.9541   -0.3587   -0.7329 H         1 <0>         0.1398
     39 H6         -2.2433   -2.6709    0.2821 H         1 <0>         0.1250
     40 H7         -1.0255   -2.5783   -1.0112 H         1 <0>         0.1045
     41 H8         -1.0109   -4.7706    0.9045 H         1 <0>         0.1376
     42 H9          0.6761   -5.6773    2.4476 H         1 <0>         0.1369
     43 H10         2.4667   -1.8209    2.7446 H         1 <0>         0.1339
     44 H11         0.3953    0.0928    1.9450 H         1 <0>         0.1439
     45 H12         2.9015   -0.5880    1.6367 H         1 <0>         0.1185
     46 H13         1.7766    1.9371    0.3424 H         1 <0>         0.0781
     47 H14         2.0974    1.7156    2.0791 H         1 <0>         0.0766
     48 H15         3.9643    2.9179    0.9755 H         1 <0>         0.0744
     49 H16         4.4975    1.3336    1.5870 H         1 <0>         0.0677
     50 H17         3.6709    1.9459   -1.2867 H         1 <0>         0.0640
     51 H18         5.3412    1.7306   -0.7106 H         1 <0>         0.0740
     52 H19         4.4749   -0.3576   -1.7291 H         1 <0>         0.0750
     53 H20         4.7958   -0.5792    0.0076 H         1 <0>         0.0711
     54 H21         2.6081   -1.5599   -0.6255 H         1 <0>         0.0784
     55 H22         2.0748    0.0243   -1.2371 H         1 <0>         0.0572
     56 H23         3.6612   -3.8163    3.6605 H         1 <0>         0.1211
     57 H24         2.0371   -6.4710    3.2709 H         1 <0>         0.1111
     58 H25         3.7343   -6.3320    3.9792 H         1 <0>         0.1112
     59 H26         1.1432   -4.9835    5.1208 H         1 <0>         0.1239
     60 H27         4.7646   -5.7831    5.2899 H         1 <0>         0.1385
     61 H28         6.1958   -5.5185    7.2431 H         1 <0>         0.1419
     62 H29         6.5073   -4.6877    9.5553 H         1 <0>         0.1428
     63 H30         3.2646   -2.6769   11.5094 H         1 <0>         0.1363
     64 H31         1.8548   -2.9538    9.5491 H         1 <0>         0.1488
     65 H32         1.5570   -3.7776    7.2393 H         1 <0>         0.1399
     66 H33         4.4064   -2.5290   12.9098 H         1 <0>         0.4446
     67 H34         7.4222   -4.3997   11.0932 H         1 <0>         0.4429
     68 H35         7.6112   -3.8279   12.6617 H         1 <0>         0.4351
     69 H36         5.8663   -2.7455   13.7128 H         1 <0>         0.4346
     70 H37         0.4904   -0.6730   -0.8816 H         1 <0>         0.4251
@<TRIPOS>BOND
     1    1    2 1
     2    1   34 1
     3    1   35 1
     4    1   36 1
     5    2   11 1
     6    2    3 1
     7    2   70 1
     8    3    4 1
     9    3   37 1
    10    3   38 1
    11    4    5 1
    12    4   39 1
    13    4   40 1
    14    5   10 ar
    15    5    6 ar
    16    6    7 ar
    17    6   41 1
    18    7    8 ar
    19    7   42 1
    20    8    9 ar
    21    8   18 1
    22    9   10 ar
    23    9   43 1
    24   10   11 1
    25   11   12 1
    26   11   44 1
    27   12   17 1
    28   12   13 1
    29   12   45 1
    30   13   14 1
    31   13   46 1
    32   13   47 1
    33   14   15 1
    34   14   48 1
    35   14   49 1
    36   15   16 1
    37   15   50 1
    38   15   51 1
    39   16   17 1
    40   16   52 1
    41   16   53 1
    42   17   54 1
    43   17   55 1
    44   18   20 1
    45   18   19 1
    46   18   56 1
    47   19   20 1
    48   19   57 1
    49   19   58 1
    50   20   21 1
    51   20   59 1
    52   21   30 ar
    53   21   22 ar
    54   22   23 ar
    55   22   60 1
    56   23   24 ar
    57   23   61 1
    58   24   29 ar
    59   24   25 ar
    60   25   26 ar
    61   25   62 1
    62   26   27 ar
    63   26   31 1
    64   27   28 ar
    65   27   63 1
    66   28   29 ar
    67   28   64 1
    68   29   30 ar
    69   30   65 1
    70   31   32 2
    71   31   33 1
    72   32   66 1
    73   32   69 1
    74   33   67 1
    75   33   68 1
@<TRIPOS>MOLECULE
CHEMBL182547__6
   70    75     0     0     0
SMALL
USER_CHARGES

@<TRIPOS>ATOM
      1 C1         -0.0038    1.2306   -0.3337 C.3       1 <0>        -0.0600
      2 N1          0.0470   -0.2184   -0.0975 N.4       1 <0>        -0.3837
      3 C2         -1.3189   -0.7384    0.0675 C.3       1 <0>        -0.0059
      4 C3         -1.2705   -2.2655    0.0038 C.3       1 <0>        -0.1079
      5 C4         -0.2214   -2.7826    0.9547 C.ar      1 <0>        -0.0895
      6 C5         -0.2469   -4.1227    1.3081 C.ar      1 <0>        -0.0963
      7 C6          0.6996   -4.6328    2.1741 C.ar      1 <0>        -0.0950
      8 C7          1.6774   -3.8029    2.6907 C.ar      1 <0>        -0.0386
      9 C8          1.7026   -2.4681    2.3402 C.ar      1 <0>        -0.0860
     10 C9          0.7514   -1.9536    1.4716 C.ar      1 <0>        -0.1171
     11 C10         0.8116   -0.4897    1.1232 C.3       1 <0>         0.0849
     12 C11         2.2704   -0.0827    0.9056 C.3       1 <0>        -0.1073
     13 C12         2.4077    1.4319    1.0735 C.3       1 <0>        -0.1439
     14 C13         3.8664    1.8389    0.8559 C.3       1 <0>        -0.1212
     15 C14         4.3020    1.4406   -0.5556 C.3       1 <0>        -0.1272
     16 C15         4.1646   -0.0739   -0.7235 C.3       1 <0>        -0.1153
     17 C16         2.7059   -0.4810   -0.5060 C.3       1 <0>        -0.1341
     18 C17         2.7138   -4.3548    3.6353 C.3       1 <0>        -0.1056
     19 C18         2.5167   -5.7844    4.1434 C.3       1 <0>        -0.1597
     20 C19         3.6119   -5.4808    3.1191 C.3       1 <0>        -0.1128
     21 C20         5.0402   -5.5072    3.5990 C.ar      1 <0>        -0.0118
     22 C21         5.3038   -5.6274    4.9622 C.ar      1 <0>        -0.1075
     23 C22         6.5822   -5.6543    5.4283 C.ar      1 <0>        -0.0845
     24 C23         7.6549   -5.5603    4.5236 C.ar      1 <0>        -0.0696
     25 C24         8.9848   -5.5854    4.9703 C.ar      1 <0>        -0.0107
     26 C25        10.0140   -5.4908    4.0495 C.ar      1 <0>        -0.1528
     27 C26         9.7350   -5.3702    2.6767 C.ar      1 <0>        -0.0907
     28 C27         8.4548   -5.3442    2.2262 C.ar      1 <0>        -0.0822
     29 C28         7.3864   -5.4384    3.1366 C.ar      1 <0>        -0.0073
     30 C29         6.0532   -5.4190    2.6939 C.ar      1 <0>        -0.1098
     31 C30        11.4182   -5.5162    4.5134 C.cat     1 <0>         0.5984
     32 N2         12.4124   -5.4254    3.6320 N.pl3     1 <0>        -0.7597
     33 N3         11.6883   -5.6298    5.8126 N.pl3     1 <0>        -0.7633
     34 H1          0.9022    1.5464   -0.8509 H         1 <0>         0.1323
     35 H2         -0.8735    1.4686   -0.9462 H         1 <0>         0.1285
     36 H3         -0.0778    1.7520    0.6206 H         1 <0>         0.1281
     37 H4         -1.7157   -0.4248    1.0330 H         1 <0>         0.1332
     38 H5         -1.9541   -0.3587   -0.7329 H         1 <0>         0.1399
     39 H6         -2.2433   -2.6709    0.2821 H         1 <0>         0.1254
     40 H7         -1.0255   -2.5783   -1.0112 H         1 <0>         0.1038
     41 H8         -1.0109   -4.7706    0.9045 H         1 <0>         0.1376
     42 H9          0.6761   -5.6773    2.4476 H         1 <0>         0.1369
     43 H10         2.4667   -1.8209    2.7446 H         1 <0>         0.1339
     44 H11         0.3953    0.0928    1.9450 H         1 <0>         0.1451
     45 H12         2.9015   -0.5880    1.6367 H         1 <0>         0.1185
     46 H13         1.7766    1.9371    0.3424 H         1 <0>         0.0783
     47 H14         2.0974    1.7156    2.0791 H         1 <0>         0.0782
     48 H15         3.9643    2.9179    0.9755 H         1 <0>         0.0748
     49 H16         4.4975    1.3336    1.5870 H         1 <0>         0.0673
     50 H17         3.6709    1.9459   -1.2867 H         1 <0>         0.0643
     51 H18         5.3412    1.7306   -0.7106 H         1 <0>         0.0728
     52 H19         4.4749   -0.3576   -1.7291 H         1 <0>         0.0736
     53 H20         4.7958   -0.5792    0.0076 H         1 <0>         0.0696
     54 H21         2.6081   -1.5599   -0.6255 H         1 <0>         0.0777
     55 H22         2.0748    0.0243   -1.2371 H         1 <0>         0.0574
     56 H23         3.1562   -3.6328    4.3217 H         1 <0>         0.1213
     57 H24         2.8292   -6.0032    5.1645 H         1 <0>         0.1114
     58 H25         1.6373   -6.3258    3.7945 H         1 <0>         0.1112
     59 H26         3.4530   -5.8225    2.0963 H         1 <0>         0.1236
     60 H27         4.4818   -5.6998    5.6589 H         1 <0>         0.1388
     61 H28         6.7719   -5.7472    6.4874 H         1 <0>         0.1420
     62 H29         9.2036   -5.6776    6.0239 H         1 <0>         0.1429
     63 H30        10.5499   -5.2970    1.9717 H         1 <0>         0.1361
     64 H31         8.2564   -5.2507    1.1687 H         1 <0>         0.1484
     65 H32         5.8329   -5.3307    1.6403 H         1 <0>         0.1394
     66 H33        12.2157   -5.3427    2.6858 H         1 <0>         0.4446
     67 H34        10.9642   -5.6958    6.4546 H         1 <0>         0.4430
     68 H35        12.6092   -5.6464    6.1168 H         1 <0>         0.4351
     69 H36        13.3333   -5.4421    3.9363 H         1 <0>         0.4346
     70 H37         0.4904   -0.6730   -0.8816 H         1 <0>         0.4241
@<TRIPOS>BOND
     1    1    2 1
     2    1   34 1
     3    1   35 1
     4    1   36 1
     5    2   11 1
     6    2    3 1
     7    2   70 1
     8    3    4 1
     9    3   37 1
    10    3   38 1
    11    4    5 1
    12    4   39 1
    13    4   40 1
    14    5   10 ar
    15    5    6 ar
    16    6    7 ar
    17    6   41 1
    18    7    8 ar
    19    7   42 1
    20    8    9 ar
    21    8   18 1
    22    9   10 ar
    23    9   43 1
    24   10   11 1
    25   11   12 1
    26   11   44 1
    27   12   17 1
    28   12   13 1
    29   12   45 1
    30   13   14 1
    31   13   46 1
    32   13   47 1
    33   14   15 1
    34   14   48 1
    35   14   49 1
    36   15   16 1
    37   15   50 1
    38   15   51 1
    39   16   17 1
    40   16   52 1
    41   16   53 1
    42   17   54 1
    43   17   55 1
    44   18   20 1
    45   18   19 1
    46   18   56 1
    47   19   20 1
    48   19   57 1
    49   19   58 1
    50   20   21 1
    51   20   59 1
    52   21   30 ar
    53   21   22 ar
    54   22   23 ar
    55   22   60 1
    56   23   24 ar
    57   23   61 1
    58   24   29 ar
    59   24   25 ar
    60   25   26 ar
    61   25   62 1
    62   26   27 ar
    63   26   31 1
    64   27   28 ar
    65   27   63 1
    66   28   29 ar
    67   28   64 1
    68   29   30 ar
    69   30   65 1
    70   31   32 2
    71   31   33 1
    72   32   66 1
    73   32   69 1
    74   33   67 1
    75   33   68 1
@<TRIPOS>MOLECULE
CHEMBL182547__7
   70    75     0     0     0
SMALL
USER_CHARGES

@<TRIPOS>ATOM
      1 C1         -1.5061    0.1648   -0.1356 C.3       1 <0>        -0.0607
      2 N1         -1.1622   -1.2339    0.1533 N.4       1 <0>        -0.3826
      3 C2         -2.3874   -1.9895    0.4560 C.3       1 <0>        -0.0069
      4 C3         -2.0541   -3.4819    0.4495 C.3       1 <0>        -0.1048
      5 C4         -0.8556   -3.7406    1.3265 C.ar      1 <0>        -0.0926
      6 C5         -0.5982   -5.0402    1.7341 C.ar      1 <0>        -0.0991
      7 C6          0.4920   -5.3160    2.5351 C.ar      1 <0>        -0.0928
      8 C7          1.3308   -4.2909    2.9318 C.ar      1 <0>        -0.0323
      9 C8          1.0742   -2.9964    2.5273 C.ar      1 <0>        -0.0842
     10 C9         -0.0216   -2.7174    1.7240 C.ar      1 <0>        -0.1151
     11 C10        -0.2682   -1.2896    1.3133 C.3       1 <0>         0.0836
     12 C11         1.0652   -0.6305    0.9548 C.3       1 <0>        -0.1080
     13 C12         0.9305    0.8891    1.0716 C.3       1 <0>        -0.1427
     14 C13         2.2639    1.5483    0.7131 C.3       1 <0>        -0.1228
     15 C14         2.6459    1.1789   -0.7217 C.3       1 <0>        -0.1272
     16 C15         2.7805   -0.3407   -0.8385 C.3       1 <0>        -0.1150
     17 C16         1.4472   -0.9998   -0.4799 C.3       1 <0>        -0.1319
     18 C17         2.5230   -4.5865    3.8049 C.3       1 <0>        -0.1092
     19 C18         2.7608   -6.0436    4.2063 C.3       1 <0>        -0.1618
     20 C19         3.6777   -5.3730    3.1813 C.3       1 <0>        -0.1169
     21 C20         3.5357   -5.7929    1.7409 C.ar      1 <0>        -0.0052
     22 C21         4.1584   -5.0447    0.7436 C.ar      1 <0>        -0.0934
     23 C22         4.0500   -5.3969   -0.5665 C.ar      1 <0>        -0.0911
     24 C23         3.2997   -6.5322   -0.9222 C.ar      1 <0>        -0.0686
     25 C24         3.1680   -6.9235   -2.2632 C.ar      1 <0>        -0.0139
     26 C25         2.4217   -8.0470   -2.5741 C.ar      1 <0>        -0.1525
     27 C26         1.7985   -8.7937   -1.5588 C.ar      1 <0>        -0.0916
     28 C27         1.9149   -8.4303   -0.2561 C.ar      1 <0>        -0.0820
     29 C28         2.6666   -7.2934    0.0928 C.ar      1 <0>        -0.0047
     30 C29         2.8059   -6.9004    1.4344 C.ar      1 <0>        -0.1165
     31 C30         2.2782   -8.4651   -3.9856 C.cat     1 <0>         0.5974
     32 N2          1.5614   -9.5452   -4.2907 N.pl3     1 <0>        -0.7589
     33 N3          2.8660   -7.7613   -4.9515 N.pl3     1 <0>        -0.7646
     34 H1         -0.7113    0.6197   -0.7267 H         1 <0>         0.1328
     35 H2         -2.4410    0.2011   -0.6948 H         1 <0>         0.1280
     36 H3         -1.6211    0.7114    0.8004 H         1 <0>         0.1293
     37 H4         -2.7610   -1.7022    1.4388 H         1 <0>         0.1344
     38 H5         -3.1430   -1.7800   -0.3012 H         1 <0>         0.1389
     39 H6         -2.9075   -4.0455    0.8266 H         1 <0>         0.1237
     40 H7         -1.8329   -3.7995   -0.5694 H         1 <0>         0.0986
     41 H8         -1.2536   -5.8407    1.4241 H         1 <0>         0.1328
     42 H9          0.6889   -6.3297    2.8512 H         1 <0>         0.1328
     43 H10         1.7300   -2.1966    2.8381 H         1 <0>         0.1359
     44 H11        -0.7232   -0.7501    2.1440 H         1 <0>         0.1460
     45 H12         1.8388   -0.9803    1.6383 H         1 <0>         0.1203
     46 H13         0.1569    1.2389    0.3881 H         1 <0>         0.0766
     47 H14         0.6584    1.1523    2.0938 H         1 <0>         0.0793
     48 H15         2.1680    2.6309    0.7963 H         1 <0>         0.0760
     49 H16         3.0376    1.1985    1.3966 H         1 <0>         0.0700
     50 H17         1.8723    1.5287   -1.4052 H         1 <0>         0.0631
     51 H18         3.5958    1.6485   -0.9771 H         1 <0>         0.0745
     52 H19         3.0527   -0.6038   -1.8606 H         1 <0>         0.0713
     53 H20         3.5542   -0.6905   -0.1550 H         1 <0>         0.0719
     54 H21         1.5431   -2.0824   -0.5632 H         1 <0>         0.0744
     55 H22         0.6735   -0.6500   -1.1635 H         1 <0>         0.0557
     56 H23         2.7746   -3.8159    4.5336 H         1 <0>         0.1291
     57 H24         3.1688   -6.2320    5.1993 H         1 <0>         0.1166
     58 H25         2.0549   -6.7885    3.8388 H         1 <0>         0.1043
     59 H26         4.6889   -5.1202    3.5000 H         1 <0>         0.1330
     60 H27         4.7351   -4.1726    1.0142 H         1 <0>         0.1363
     61 H28         4.5373   -4.8075   -1.3291 H         1 <0>         0.1390
     62 H29         3.6447   -6.3527   -3.0463 H         1 <0>         0.1407
     63 H30         1.2194   -9.6675   -1.8187 H         1 <0>         0.1360
     64 H31         1.4300   -9.0138    0.5126 H         1 <0>         0.1483
     65 H32         2.3329   -7.4724    2.2190 H         1 <0>         0.1399
     66 H33         1.1333  -10.0577   -3.5871 H         1 <0>         0.4451
     67 H34         3.3881   -6.9746   -4.7294 H         1 <0>         0.4423
     68 H35         2.7719   -8.0355   -5.8772 H         1 <0>         0.4353
     69 H36         1.4673   -9.8193   -5.2163 H         1 <0>         0.4350
     70 H37        -0.7022   -1.6407   -0.6474 H         1 <0>         0.4218
@<TRIPOS>BOND
     1    1    2 1
     2    1   34 1
     3    1   35 1
     4    1   36 1
     5    2   11 1
     6    2    3 1
     7    2   70 1
     8    3    4 1
     9    3   37 1
    10    3   38 1
    11    4    5 1
    12    4   39 1
    13    4   40 1
    14    5   10 ar
    15    5    6 ar
    16    6    7 ar
    17    6   41 1
    18    7    8 ar
    19    7   42 1
    20    8    9 ar
    21    8   18 1
    22    9   10 ar
    23    9   43 1
    24   10   11 1
    25   11   12 1
    26   11   44 1
    27   12   17 1
    28   12   13 1
    29   12   45 1
    30   13   14 1
    31   13   46 1
    32   13   47 1
    33   14   15 1
    34   14   48 1
    35   14   49 1
    36   15   16 1
    37   15   50 1
    38   15   51 1
    39   16   17 1
    40   16   52 1
    41   16   53 1
    42   17   54 1
    43   17   55 1
    44   18   20 1
    45   18   19 1
    46   18   56 1
    47   19   20 1
    48   19   57 1
    49   19   58 1
    50   20   21 1
    51   20   59 1
    52   21   30 ar
    53   21   22 ar
    54   22   23 ar
    55   22   60 1
    56   23   24 ar
    57   23   61 1
    58   24   29 ar
    59   24   25 ar
    60   25   26 ar
    61   25   62 1
    62   26   27 ar
    63   26   31 1
    64   27   28 ar
    65   27   63 1
    66   28   29 ar
    67   28   64 1
    68   29   30 ar
    69   30   65 1
    70   31   32 2
    71   31   33 1
    72   32   66 1
    73   32   69 1
    74   33   67 1
    75   33   68 1
@<TRIPOS>MOLECULE
CHEMBL418839
   62    65     0     0     0
SMALL
USER_CHARGES

@<TRIPOS>ATOM
      1 C1          0.5491    1.7852    0.3808 C.3       1 <0>        -0.1808
      2 C2          0.4759    0.2605    0.2765 C.3       1 <0>         0.0756
      3 C3          1.2610   -0.2049   -0.9515 C.3       1 <0>        -0.1504
      4 O1          1.0393   -0.3249    1.4520 O.3       1 <0>        -0.3030
      5 C4          0.2228   -0.4498    2.5311 C.ar      1 <0>         0.1951
      6 C5          0.7303   -0.9169    3.7340 C.ar      1 <0>        -0.1917
      7 C6         -0.1038   -1.0439    4.8363 C.ar      1 <0>         0.2165
      8 C7         -1.4460   -0.7031    4.7334 C.ar      1 <0>        -0.2160
      9 C8         -1.9518   -0.2363    3.5302 C.ar      1 <0>         0.1944
     10 C9         -1.1165   -0.1046    2.4306 C.ar      1 <0>        -0.3120
     11 O2         -3.2654    0.0969    3.4291 O.3       1 <0>        -0.3019
     12 C10        -3.6979    0.6620    2.1899 C.3       1 <0>         0.0779
     13 C11        -3.4865    2.1900    2.2035 C.3       1 <0>        -0.1475
     14 C12        -4.7117    2.7498    1.4389 C.3       1 <0>        -0.1244
     15 C13        -5.8604    1.8231    1.9087 C.3       1 <0>        -0.1243
     16 C14        -5.2073    0.4287    2.0025 C.3       1 <0>        -0.1220
     17 N1          0.4072   -1.5154    6.0495 N.am      1 <0>        -0.6617
     18 C15         1.6673   -1.2074    6.4151 C.2       1 <0>         0.5528
     19 O3          2.3238   -0.4359    5.7432 O.2       1 <0>        -0.4942
     20 C16         2.2511   -1.8078    7.6333 C.ar      1 <0>        -0.0955
     21 C17         1.4888   -2.7041    8.4033 C.ar      1 <0>        -0.0818
     22 C18         2.0030   -3.2682    9.5258 C.ar      1 <0>        -0.0931
     23 C19         3.3149   -2.9591    9.9322 C.ar      1 <0>        -0.0492
     24 C20         3.8647   -3.5323   11.0891 C.ar      1 <0>        -0.0177
     25 C21         5.1576   -3.2085   11.4622 C.ar      1 <0>        -0.1426
     26 C22         5.9200   -2.3129   10.6927 C.ar      1 <0>        -0.0975
     27 C23         5.4058   -1.7477    9.5704 C.ar      1 <0>        -0.0666
     28 C24         4.0941   -2.0567    9.1637 C.ar      1 <0>        -0.0223
     29 C25         3.5464   -1.4876    8.0039 C.ar      1 <0>        -0.0409
     30 C26         5.7419   -3.8098   12.6816 C.cat     1 <0>         0.5994
     31 N2          6.9852   -3.5021   13.0455 N.pl3     1 <0>        -0.7589
     32 N3          5.0244   -4.6585   13.4148 N.pl3     1 <0>        -0.7630
     33 H1          1.5902    2.0933    0.4769 H         1 <0>         0.0702
     34 H2          0.1193    2.2318   -0.5159 H         1 <0>         0.0750
     35 H3         -0.0102    2.1168    1.2556 H         1 <0>         0.0615
     36 H4         -0.5652   -0.0476    0.1803 H         1 <0>         0.0731
     37 H5          2.3021    0.1032   -0.8554 H         1 <0>         0.0693
     38 H6          1.2089   -1.2911   -1.0258 H         1 <0>         0.0661
     39 H7          0.8313    0.2416   -1.8482 H         1 <0>         0.0800
     40 H8          1.7743   -1.1821    3.8132 H         1 <0>         0.1413
     41 H9         -2.0956   -0.8020    5.5904 H         1 <0>         0.1357
     42 H10        -1.5103    0.2631    1.4946 H         1 <0>         0.1414
     43 H11        -3.1456    0.2152    1.3632 H         1 <0>         0.0771
     44 H12        -3.4722    2.5641    3.2272 H         1 <0>         0.0808
     45 H13        -2.5627    2.4519    1.6877 H         1 <0>         0.0706
     46 H14        -4.9070    3.7831    1.7258 H         1 <0>         0.0740
     47 H15        -4.5653    2.6679    0.3619 H         1 <0>         0.0711
     48 H16        -6.2295    2.1379    2.8849 H         1 <0>         0.0710
     49 H17        -6.6691    1.8173    1.1778 H         1 <0>         0.0731
     50 H18        -5.3875   -0.1305    1.0844 H         1 <0>         0.0792
     51 H19        -5.6099   -0.1155    2.8568 H         1 <0>         0.0824
     52 H20        -0.1453   -2.0640    6.6280 H         1 <0>         0.4136
     53 H21         0.4815   -2.9463    8.0981 H         1 <0>         0.1407
     54 H22         1.4053   -3.9543   10.1075 H         1 <0>         0.1473
     55 H23         3.2831   -4.2207   11.6842 H         1 <0>         0.1448
     56 H24         6.9273   -2.0711   10.9981 H         1 <0>         0.1383
     57 H25         6.0035   -1.0609    8.9893 H         1 <0>         0.1543
     58 H26         4.1295   -0.8021    7.4067 H         1 <0>         0.1582
     59 H27         7.5079   -2.8839   12.5113 H         1 <0>         0.4454
     60 H28         4.1186   -4.8826   13.1497 H         1 <0>         0.4435
     61 H29         5.4074   -5.0526   14.2141 H         1 <0>         0.4344
     62 H30         7.3681   -3.8963   13.8448 H         1 <0>         0.4340
@<TRIPOS>BOND
     1    1    2 1
     2    1   33 1
     3    1   34 1
     4    1   35 1
     5    2    3 1
     6    2    4 1
     7    2   36 1
     8    3   37 1
     9    3   38 1
    10    3   39 1
    11    4    5 1
    12    5   10 ar
    13    5    6 ar
    14    6    7 ar
    15    6   40 1
    16    7    8 ar
    17    7   17 1
    18    8    9 ar
    19    8   41 1
    20    9   10 ar
    21    9   11 1
    22   10   42 1
    23   11   12 1
    24   12   16 1
    25   12   13 1
    26   12   43 1
    27   13   14 1
    28   13   44 1
    29   13   45 1
    30   14   15 1
    31   14   46 1
    32   14   47 1
    33   15   16 1
    34   15   48 1
    35   15   49 1
    36   16   50 1
    37   16   51 1
    38   17   18 am
    39   17   52 1
    40   18   19 2
    41   18   20 1
    42   20   29 ar
    43   20   21 ar
    44   21   22 ar
    45   21   53 1
    46   22   23 ar
    47   22   54 1
    48   23   28 ar
    49   23   24 ar
    50   24   25 ar
    51   24   55 1
    52   25   26 ar
    53   25   30 1
    54   26   27 ar
    55   26   56 1
    56   27   28 ar
    57   27   57 1
    58   28   29 ar
    59   29   58 1
    60   30   31 2
    61   30   32 1
    62   31   59 1
    63   31   62 1
    64   32   60 1
    65   32   61 1
@<TRIPOS>MOLECULE
CHEMBL318363
   42    45     0     0     0
SMALL
USER_CHARGES

@<TRIPOS>ATOM
      1 C1         -0.0167    1.3790    0.0096 C.ar      1 <0>        -0.1116
      2 C2          1.1686    2.0920    0.0021 C.ar      1 <0>        -0.1153
      3 C3          2.3774    1.4262   -0.0130 C.ar      1 <0>        -0.1031
      4 C4          2.4023    0.0328   -0.0207 C.ar      1 <0>        -0.0503
      5 C5          1.2050   -0.6804   -0.0131 C.ar      1 <0>        -0.1002
      6 C6          0.0021   -0.0041    0.0020 C.ar      1 <0>        -0.1168
      7 C7          3.6984   -0.6885   -0.0375 C.ar      1 <0>        -0.0667
      8 C8          4.6787   -0.3420   -0.9656 C.ar      1 <0>        -0.0667
      9 C9          5.8869   -1.0116   -0.9839 C.ar      1 <0>        -0.1217
     10 C10         6.1354   -2.0291   -0.0843 C.ar      1 <0>        -0.0673
     11 C11         5.1656   -2.3893    0.8523 C.ar      1 <0>        -0.0817
     12 C12         3.9414   -1.7122    0.8800 C.ar      1 <0>         0.1531
     13 O1          2.9936   -2.0520    1.7908 O.3       1 <0>        -0.4812
     14 C13         5.4325   -3.4782    1.8145 C.2       1 <0>         0.1182
     15 C14         5.9047   -4.7054    1.4895 C.2       1 <0>        -0.1901
     16 C15         6.0127   -5.4450    2.7500 C.ar      1 <0>        -0.1298
     17 C16         6.4251   -6.7316    3.0877 C.ar      1 <0>         0.0062
     18 C17         6.4024   -7.1269    4.4216 C.ar      1 <0>        -0.1742
     19 C18         5.9676   -6.2334    5.4085 C.ar      1 <0>        -0.0526
     20 C19         5.5629   -4.9724    5.0780 C.ar      1 <0>        -0.0871
     21 C20         5.5777   -4.5556    3.7511 C.ar      1 <0>         0.1114
     22 O2          5.2479   -3.3965    3.1468 O.3       1 <0>        -0.1607
     23 C21         6.8365   -8.4894    4.7969 C.cat     1 <0>         0.6061
     24 N1          6.8145   -8.8674    6.0740 N.pl3     1 <0>        -0.7621
     25 N2          7.2495   -9.3391    3.8579 N.pl3     1 <0>        -0.7645
     26 H1         -0.9603    1.9042    0.0260 H         1 <0>         0.1262
     27 H2          1.1481    3.1718    0.0078 H         1 <0>         0.1278
     28 H3          3.3022    1.9839   -0.0192 H         1 <0>         0.1248
     29 H4          1.2185   -1.7603   -0.0194 H         1 <0>         0.1157
     30 H5         -0.9264   -0.5557    0.0083 H         1 <0>         0.1262
     31 H6          4.4931    0.4527   -1.6731 H         1 <0>         0.1391
     32 H7          6.6413   -0.7378   -1.7066 H         1 <0>         0.1416
     33 H8          7.0825   -2.5478   -0.1058 H         1 <0>         0.1371
     34 H9          2.3844   -2.7387    1.4869 H         1 <0>         0.3914
     35 H10         6.1513   -5.0658    0.5018 H         1 <0>         0.1743
     36 H11         6.7590   -7.4159    2.3217 H         1 <0>         0.1441
     37 H12         5.9520   -6.5456    6.4423 H         1 <0>         0.1479
     38 H13         5.2296   -4.2952    5.8504 H         1 <0>         0.1573
     39 H14         6.5137   -8.2486    6.7578 H         1 <0>         0.4445
     40 H15         7.2655   -9.0639    2.9279 H         1 <0>         0.4434
     41 H16         7.5343  -10.2331    4.1041 H         1 <0>         0.4338
     42 H17         7.0993   -9.7613    6.3202 H         1 <0>         0.4337
@<TRIPOS>BOND
     1    1    6 ar
     2    1    2 ar
     3    1   26 1
     4    2    3 ar
     5    2   27 1
     6    3    4 ar
     7    3   28 1
     8    4    5 ar
     9    4    7 1
    10    5    6 ar
    11    5   29 1
    12    6   30 1
    13    7   12 ar
    14    7    8 ar
    15    8    9 ar
    16    8   31 1
    17    9   10 ar
    18    9   32 1
    19   10   11 ar
    20   10   33 1
    21   11   12 ar
    22   11   14 1
    23   12   13 1
    24   13   34 1
    25   14   22 1
    26   14   15 2
    27   15   16 1
    28   15   35 1
    29   16   21 ar
    30   16   17 ar
    31   17   18 ar
    32   17   36 1
    33   18   19 ar
    34   18   23 1
    35   19   20 ar
    36   19   37 1
    37   20   21 ar
    38   20   38 1
    39   21   22 1
    40   23   24 2
    41   23   25 1
    42   24   39 1
    43   24   42 1
    44   25   40 1
    45   25   41 1
@<TRIPOS>MOLECULE
CHEMBL211401
   78    80     0     0     0
SMALL
USER_CHARGES

@<TRIPOS>ATOM
      1 C1         -0.7838    2.1476    0.7941 C.ar      1 <0>        -0.0899
      2 C2          0.4413    2.5992    0.3361 C.ar      1 <0>        -0.0252
      3 C3          1.4241    1.6977   -0.0313 C.ar      1 <0>        -0.0678
      4 C4          1.1877    0.3410    0.0568 C.ar      1 <0>        -0.0473
      5 C5         -0.0453   -0.1207    0.5178 C.ar      1 <0>        -0.1460
      6 C6         -1.0323    0.7939    0.8872 C.ar      1 <0>        -0.0387
      7 C7         -0.3055   -1.5741    0.6142 C.cat     1 <0>         0.6005
      8 N1         -1.4834   -2.0117    1.0546 N.pl3     1 <0>        -0.7604
      9 N2          0.6381   -2.4443    0.2606 N.pl3     1 <0>        -0.7724
     10 C8          2.7555    2.1982   -0.5291 C.3       1 <0>        -0.1027
     11 C9          3.7112    2.3678    0.6536 C.3       1 <0>         0.1482
     12 H1          3.8636    1.4037    1.1387 H         1 <0>         0.1033
     13 C10         5.0333    2.8960    0.1594 C.2       1 <0>         0.5129
     14 O1          5.2873    4.0782    0.2535 O.2       1 <0>        -0.5041
     15 N3          5.9333    2.0548   -0.3872 N.am      1 <0>        -0.6123
     16 C11         5.5965    0.6428   -0.6143 C.3       1 <0>         0.0976
     17 C12         6.6662   -0.2318    0.0471 C.3       1 <0>        -0.1303
     18 C13         8.0465    0.1766   -0.4728 C.3       1 <0>        -0.0867
     19 C14         8.3206    1.6365   -0.1045 C.3       1 <0>        -0.1362
     20 C15         7.2677    2.5336   -0.7728 C.3       1 <0>         0.1073
     21 C16         9.1146   -0.7178    0.1596 C.3       1 <0>        -0.1429
     22 C17        10.4789   -0.3937   -0.4524 C.3       1 <0>        -0.0172
     23 N4         11.5044   -1.2525    0.1548 N.4       1 <0>        -0.6382
     24 N5          3.1363    3.3124    1.6145 N.pl3     1 <0>        -1.1009
     25 S1          2.2664    2.7520    2.9073 S.o2      1 <0>         2.6832
     26 O2          1.8717    3.8931    3.6566 O.2       1 <0>        -0.9355
     27 O3          1.3283    1.8177    2.3913 O.2       1 <0>        -0.9406
     28 C18         3.3771    1.8398    3.9266 C.ar      1 <0>        -0.6880
     29 C19         3.5548    0.4851    3.7132 C.ar      1 <0>        -0.0079
     30 C20         4.4247   -0.2328    4.5103 C.ar      1 <0>        -0.1411
     31 C21         5.1216    0.4074    5.5268 C.ar      1 <0>         0.1916
     32 C22         4.9412    1.7680    5.7382 C.ar      1 <0>        -0.1526
     33 C23         4.0735    2.4812    4.9345 C.ar      1 <0>         0.0100
     34 N6          6.0033   -0.3172    6.3364 N.am      1 <0>        -0.6650
     35 C24         6.7026   -1.3463    5.8185 C.2       1 <0>         0.5286
     36 O4          6.6405   -1.5851    4.6310 O.2       1 <0>        -0.5204
     37 C25         7.5619   -2.2002    6.7149 C.3       1 <0>        -0.1821
     38 C26         8.2422   -3.2892    5.8828 C.3       1 <0>         0.0116
     39 N7          9.0797   -4.1216    6.7566 N.4       1 <0>        -0.6391
     40 H2         -1.5455    2.8564    1.0837 H         1 <0>         0.1450
     41 H3          0.6309    3.6600    0.2647 H         1 <0>         0.1369
     42 H4          1.9556   -0.3619   -0.2310 H         1 <0>         0.1244
     43 H5         -1.9888    0.4426    1.2451 H         1 <0>         0.1322
     44 H6         -1.6540   -2.9645    1.1178 H         1 <0>         0.4328
     45 H7          1.4962   -2.1255   -0.0603 H         1 <0>         0.4391
     46 H8          0.4675   -3.3971    0.3238 H         1 <0>         0.4312
     47 H9          3.1735    1.4794   -1.2338 H         1 <0>         0.0982
     48 H10         2.6196    3.1583   -1.0270 H         1 <0>         0.1052
     49 H11         4.6230    0.4241   -0.1754 H         1 <0>         0.0859
     50 H12         5.5704    0.4411   -1.6852 H         1 <0>         0.0838
     51 H13         6.6298   -0.0962    1.1280 H         1 <0>         0.0734
     52 H14         6.4813   -1.2784   -0.1951 H         1 <0>         0.0821
     53 H15         8.0741    0.0642   -1.5566 H         1 <0>         0.0906
     54 H16         8.2687    1.7546    0.9778 H         1 <0>         0.0719
     55 H17         9.3133    1.9198   -0.4546 H         1 <0>         0.0789
     56 H18         7.3751    2.4829   -1.8563 H         1 <0>         0.0786
     57 H19         7.3973    3.5629   -0.4384 H         1 <0>         0.1024
     58 H20         9.1471   -0.5404    1.2346 H         1 <0>         0.0845
     59 H21         8.8710   -1.7634   -0.0289 H         1 <0>         0.0893
     60 H22        10.4463   -0.5711   -1.5273 H         1 <0>         0.1390
     61 H23        10.7225    0.6519   -0.2639 H         1 <0>         0.1370
     62 H24        11.5345   -1.0883    1.1499 H         1 <0>         0.4315
     63 H25        11.2789   -2.2204   -0.0196 H         1 <0>         0.4345
     64 H26         3.2652    4.2662    1.4934 H         1 <0>         0.4354
     65 H27         3.0126   -0.0121    2.9225 H         1 <0>         0.1402
     66 H28         4.5625   -1.2909    4.3436 H         1 <0>         0.1411
     67 H29         5.4814    2.2686    6.5281 H         1 <0>         0.1441
     68 H30         3.9358    3.5401    5.0957 H         1 <0>         0.1522
     69 H31         6.1111   -0.0787    7.2705 H         1 <0>         0.4241
     70 H32         8.3208   -1.5788    7.1902 H         1 <0>         0.1267
     71 H33         6.9398   -2.6635    7.4807 H         1 <0>         0.1291
     72 H34         7.4832   -3.9106    5.4075 H         1 <0>         0.1430
     73 H35         8.8643   -2.8259    5.1170 H         1 <0>         0.1381
     74 H36         9.7823   -3.5464    7.1966 H         1 <0>         0.4385
     75 H37         8.5039   -4.5505    7.4655 H         1 <0>         0.4411
     76 H38        -2.1708   -1.3778    1.3123 H         1 <0>         0.4463
     77 H39        12.4041   -1.0388   -0.2487 H         1 <0>         0.4437
     78 H40         9.5284   -4.8397    6.2079 H         1 <0>         0.4448
@<TRIPOS>BOND
     1    1    6 ar
     2    1    2 ar
     3    1   40 1
     4    2    3 ar
     5    2   41 1
     6    3    4 ar
     7    3   10 1
     8    4    5 ar
     9    4   42 1
    10    5    6 ar
    11    5    7 1
    12    6   43 1
    13    7    8 2
    14    7    9 1
    15    8   44 1
    16    8   76 1
    17    9   45 1
    18    9   46 1
    19   10   11 1
    20   10   47 1
    21   10   48 1
    22   11   12 1
    23   11   13 1
    24   11   24 1
    25   13   14 2
    26   13   15 am
    27   15   20 1
    28   15   16 1
    29   16   17 1
    30   16   49 1
    31   16   50 1
    32   17   18 1
    33   17   51 1
    34   17   52 1
    35   18   19 1
    36   18   21 1
    37   18   53 1
    38   19   20 1
    39   19   54 1
    40   19   55 1
    41   20   56 1
    42   20   57 1
    43   21   22 1
    44   21   58 1
    45   21   59 1
    46   22   23 1
    47   22   60 1
    48   22   61 1
    49   23   62 1
    50   23   63 1
    51   23   77 1
    52   24   25 1
    53   24   64 1
    54   25   26 2
    55   25   27 2
    56   25   28 1
    57   28   33 ar
    58   28   29 ar
    59   29   30 ar
    60   29   65 1
    61   30   31 ar
    62   30   66 1
    63   31   32 ar
    64   31   34 1
    65   32   33 ar
    66   32   67 1
    67   33   68 1
    68   34   35 am
    69   34   69 1
    70   35   36 2
    71   35   37 1
    72   37   38 1
    73   37   70 1
    74   37   71 1
    75   38   39 1
    76   38   72 1
    77   38   73 1
    78   39   74 1
    79   39   75 1
    80   39   78 1
@<TRIPOS>MOLECULE
CHEMBL227421
   40    41     0     0     0
SMALL
USER_CHARGES

@<TRIPOS>ATOM
      1 C1          1.2058   -2.5022   -0.2628 C.3       1 <0>        -0.1641
      2 C2          0.1918   -1.8104   -1.1761 C.3       1 <0>         0.1037
      3 C3          0.3614   -2.3236   -2.6074 C.3       1 <0>        -0.1531
      4 C4         -1.2045   -2.1126   -0.6963 C.2       1 <0>         0.5088
      5 O1         -1.9440   -1.2032   -0.3607 O.co2     1 <0>        -0.6857
      6 O2         -1.5946   -3.2665   -0.6437 O.co2     1 <0>        -0.6826
      7 N1          0.4157   -0.3629   -1.1465 N.pl3     1 <0>        -1.0793
      8 S1          1.9305    0.2464   -1.4234 S.o2      1 <0>         2.6897
      9 O3          2.4419   -0.4373   -2.5593 O.2       1 <0>        -0.9614
     10 O4          1.8140    1.6618   -1.3747 O.2       1 <0>        -0.9717
     11 C5          2.9387   -0.2232   -0.0568 C.ar      1 <0>        -0.6830
     12 C6          2.8730    0.5073    1.1267 C.ar      1 <0>        -0.0010
     13 C7          3.6397    0.1712    2.2028 C.ar      1 <0>        -0.1392
     14 C8          4.5063   -0.9266    2.1153 C.ar      1 <0>         0.0380
     15 C9          4.5715   -1.6693    0.9100 C.ar      1 <0>        -0.1448
     16 C10         3.7679   -1.3006   -0.1725 C.ar      1 <0>         0.0575
     17 C11         5.4851   -2.8092    0.8511 C.ar      1 <0>         0.4304
     18 N2          6.2139   -3.1036    1.9208 N.ar      1 <0>        -0.5273
     19 C12         6.1453   -2.4028    3.0426 C.ar      1 <0>         0.1378
     20 C13         5.3251   -1.3273    3.1901 C.ar      1 <0>        -0.1264
     21 Cl1         5.2879   -0.4550    4.6906 Cl        1 <0>        -0.0580
     22 N3          5.5863   -3.5557   -0.2806 N.2       1 <0>        -0.6275
     23 C14         6.5313   -3.2939   -1.1599 C.2       1 <0>         0.6883
     24 N4          7.4778   -2.3432   -0.8852 N.pl3     1 <0>        -0.8751
     25 N5          6.5673   -3.9724   -2.3488 N.pl3     1 <0>        -0.8299
     26 H1          2.1991   -2.4357   -0.7066 H         1 <0>         0.0518
     27 H2          1.2097   -2.0135    0.7116 H         1 <0>         0.0557
     28 H3          0.9309   -3.5501   -0.1426 H         1 <0>         0.0821
     29 H4          0.0033   -3.3512   -2.6698 H         1 <0>         0.0693
     30 H5         -0.2135   -1.6965   -3.2888 H         1 <0>         0.0524
     31 H6          1.4154   -2.2887   -2.8834 H         1 <0>         0.0693
     32 H7         -0.3232    0.2385   -0.9648 H         1 <0>         0.4241
     33 H8          2.2048    1.3531    1.1931 H         1 <0>         0.1423
     34 H9          3.5800    0.7464    3.1149 H         1 <0>         0.1418
     35 H10         3.8062   -1.8614   -1.0947 H         1 <0>         0.1556
     36 H11         6.7667   -2.6975    3.8753 H         1 <0>         0.1583
     37 H12         7.4989   -1.9173   -0.0139 H         1 <0>         0.4144
     38 H13         8.1273   -2.0957   -1.5619 H         1 <0>         0.4009
     39 H14         5.8969   -4.6459   -2.5434 H         1 <0>         0.4269
     40 H15         7.2633   -3.7796   -2.9964 H         1 <0>         0.4110
@<TRIPOS>BOND
     1    1    2 1
     2    1   26 1
     3    1   27 1
     4    1   28 1
     5    2    3 1
     6    2    4 1
     7    2    7 1
     8    3   29 1
     9    3   30 1
    10    3   31 1
    11    4    5 2
    12    4    6 1
    13    7    8 1
    14    7   32 1
    15    8    9 2
    16    8   10 2
    17    8   11 1
    18   11   16 ar
    19   11   12 ar
    20   12   13 ar
    21   12   33 1
    22   13   14 ar
    23   13   34 1
    24   14   20 ar
    25   14   15 ar
    26   15   16 ar
    27   15   17 ar
    28   16   35 1
    29   17   18 ar
    30   17   22 1
    31   18   19 ar
    32   19   20 ar
    33   19   36 1
    34   20   21 1
    35   22   23 2
    36   23   24 1
    37   23   25 1
    38   24   37 1
    39   24   38 1
    40   25   39 1
    41   25   40 1
@<TRIPOS>MOLECULE
CHEMBL173392
   43    45     0     0     0
SMALL
USER_CHARGES

@<TRIPOS>ATOM
      1 C1         -0.0184    1.5028    0.0103 C.3       1 <0>        -0.1229
      2 C2          0.0021   -0.0041    0.0020 C.ar      1 <0>        -0.0655
      3 C3          0.0057   -0.6887   -1.1989 C.ar      1 <0>        -0.1230
      4 C4          0.0245   -2.0709   -1.2065 C.ar      1 <0>        -0.0900
      5 C5          0.0400   -2.7685   -0.0132 C.ar      1 <0>        -0.1271
      6 C6          0.0373   -2.0839    1.1877 C.ar      1 <0>        -0.0900
      7 C7          0.0229   -0.7016    1.1953 C.ar      1 <0>        -0.1230
      8 C8          0.0595   -4.2753   -0.0215 C.3       1 <0>         0.1661
      9 N1          1.4468   -4.7457   -0.0317 N.pl3     1 <0>        -0.6696
     10 C9          1.7176   -6.1046   -0.0406 C.2       1 <0>         0.3358
     11 N2          2.8889   -6.7018   -0.0450 N.2       1 <0>        -0.5924
     12 C10         2.9825   -8.0266   -0.0529 C.2       1 <0>         0.1602
     13 C11         1.8077   -8.7230   -0.0561 C.2       1 <0>        -0.2765
     14 S1          0.6260   -7.3850   -0.0410 S.3       1 <0>         0.1221
     15 C12         4.2971   -8.7153   -0.0583 C.2       1 <0>        -0.0801
     16 C13         4.3739  -10.0905   -0.0727 C.2       1 <0>         0.0218
     17 C14         5.6235  -10.6856   -0.0773 C.2       1 <0>        -0.3243
     18 S2          6.7191   -9.2769   -0.0609 S.3       1 <0>         0.1755
     19 C15         5.4855   -7.9870   -0.0549 C.2       1 <0>        -0.0849
     20 S3          5.7120   -6.2396   -0.0442 S.3       1 <0>         0.1770
     21 C16         7.5140   -6.0307   -0.0445 C.3       1 <0>        -0.2224
     22 C17         5.9607  -12.1086   -0.0914 C.cat     1 <0>         0.6519
     23 N3          7.2433  -12.4927   -0.0937 N.pl3     1 <0>        -0.7733
     24 N4          4.9868  -13.0273   -0.1020 N.pl3     1 <0>        -0.7669
     25 H1          1.0042    1.8801    0.0026 H         1 <0>         0.0752
     26 H2         -0.5455    1.8639   -0.8728 H         1 <0>         0.0707
     27 H3         -0.5286    1.8543    0.9071 H         1 <0>         0.0707
     28 H4         -0.0064   -0.1436   -2.1312 H         1 <0>         0.1274
     29 H5          0.0266   -2.6057   -2.1448 H         1 <0>         0.1252
     30 H6          0.0491   -2.6289    2.1200 H         1 <0>         0.1252
     31 H7          0.0245   -0.1667    2.1335 H         1 <0>         0.1273
     32 H8         -0.4447   -4.6501    0.8693 H         1 <0>         0.0814
     33 H9         -0.4546   -4.6404   -0.9106 H         1 <0>         0.0815
     34 H10         2.1759   -4.1059   -0.0323 H         1 <0>         0.4173
     35 H11         1.6397   -9.7899   -0.0625 H         1 <0>         0.1914
     36 H12         3.4772  -10.6923   -0.0800 H         1 <0>         0.1552
     37 H13         7.7565   -4.9681   -0.0381 H         1 <0>         0.1301
     38 H14         7.9348   -6.5048    0.8422 H         1 <0>         0.0950
     39 H15         7.9333   -6.4938   -0.9377 H         1 <0>         0.0950
     40 H16         7.9489  -11.8271   -0.0860 H         1 <0>         0.4407
     41 H17         4.0576  -12.7491   -0.1003 H         1 <0>         0.4432
     42 H18         5.2105  -13.9711   -0.1113 H         1 <0>         0.4342
     43 H19         7.4670  -13.4365   -0.1031 H         1 <0>         0.4345
@<TRIPOS>BOND
     1    1    2 1
     2    1   25 1
     3    1   26 1
     4    1   27 1
     5    2    7 ar
     6    2    3 ar
     7    3    4 ar
     8    3   28 1
     9    4    5 ar
    10    4   29 1
    11    5    6 ar
    12    5    8 1
    13    6    7 ar
    14    6   30 1
    15    7   31 1
    16    8    9 1
    17    8   32 1
    18    8   33 1
    19    9   10 1
    20    9   34 1
    21   10   14 1
    22   10   11 2
    23   11   12 1
    24   12   13 2
    25   12   15 1
    26   13   14 1
    27   13   35 1
    28   15   19 2
    29   15   16 1
    30   16   17 2
    31   16   36 1
    32   17   18 1
    33   17   22 1
    34   18   19 1
    35   19   20 1
    36   20   21 1
    37   21   37 1
    38   21   38 1
    39   21   39 1
    40   22   23 2
    41   22   24 1
    42   23   40 1
    43   23   43 1
    44   24   41 1
    45   24   42 1
@<TRIPOS>MOLECULE
CHEMBL321319
   54    57     0     0     0
SMALL
USER_CHARGES

@<TRIPOS>ATOM
      1 C1         -0.0378    1.5209    0.0008 C.3       1 <0>        -0.1538
      2 C2         -0.0113   -0.0089   -0.0028 C.3       1 <0>        -0.5953
      3 S1          0.8761   -0.6016    1.4641 S.o2      1 <0>         2.5124
      4 O1          2.2534   -0.2642    1.3725 O.2       1 <0>        -0.9081
      5 O2          0.1338   -0.3039    2.6387 O.2       1 <0>        -0.9131
      6 C3          0.8344   -2.3587    1.3392 C.2       1 <0>        -0.5440
      7 C4          1.7576   -3.1191    0.7277 C.2       1 <0>        -0.0694
      8 C5          1.3039   -4.5069    0.8783 C.2       1 <0>        -0.1750
      9 C6          0.1377   -4.4402    1.5747 C.2       1 <0>         0.0209
     10 O3         -0.1216   -3.1530    1.8447 O.3       1 <0>        -0.1155
     11 C7          1.9768   -5.7273    0.3758 C.ar      1 <0>         0.0084
     12 C8          2.3937   -5.7985   -0.9384 C.ar      1 <0>        -0.0420
     13 C9          3.0320   -6.9500   -1.4219 C.ar      1 <0>        -0.0816
     14 C10         3.2554   -8.0366   -0.5907 C.ar      1 <0>        -0.0728
     15 C11         2.8415   -7.9895    0.7486 C.ar      1 <0>        -0.0158
     16 C12         2.2011   -6.8253    1.2433 C.ar      1 <0>        -0.0368
     17 C13         1.7931   -6.7784    2.5817 C.ar      1 <0>        -0.0253
     18 C14         2.0258   -7.8678    3.4054 C.ar      1 <0>        -0.1386
     19 C15         2.6666   -9.0150    2.9069 C.ar      1 <0>        -0.0938
     20 C16         3.0590   -9.0832    1.6089 C.ar      1 <0>        -0.0678
     21 C17         1.5970   -7.8229    4.8204 C.cat     1 <0>         0.5984
     22 N1          1.8181   -8.8673    5.6166 N.pl3     1 <0>        -0.7571
     23 N2          0.9897   -6.7382    5.2981 N.pl3     1 <0>        -0.7624
     24 C18         3.4707   -7.0057   -2.8328 C.2       1 <0>         0.5513
     25 O4          3.2775   -6.0565   -3.5673 O.2       1 <0>        -0.4980
     26 N3          4.0847   -8.1088   -3.3046 N.am      1 <0>        -0.6623
     27 C19         4.4124   -8.2006   -4.6610 C.ar      1 <0>         0.1296
     28 C20         4.3391   -9.4246   -5.3134 C.ar      1 <0>        -0.1397
     29 C21         4.6630   -9.5117   -6.6531 C.ar      1 <0>        -0.1007
     30 C22         5.0603   -8.3821   -7.3449 C.ar      1 <0>        -0.1248
     31 C23         5.1344   -7.1620   -6.6983 C.ar      1 <0>        -0.1009
     32 C24         4.8064   -7.0669   -5.3601 C.ar      1 <0>        -0.1175
     33 H1          0.9833    1.9020   -0.0136 H         1 <0>         0.0785
     34 H2         -0.5710    1.8771   -0.8807 H         1 <0>         0.0936
     35 H3         -0.5446    1.8734    0.8991 H         1 <0>         0.0785
     36 H4         -1.0324   -0.3900    0.0116 H         1 <0>         0.1416
     37 H5          0.4955   -0.3614   -0.9011 H         1 <0>         0.1405
     38 H6          2.6516   -2.7785    0.2266 H         1 <0>         0.1800
     39 H7         -0.4735   -5.2819    1.8650 H         1 <0>         0.2182
     40 H8          2.2267   -4.9609   -1.5995 H         1 <0>         0.1550
     41 H9          3.7473   -8.9184   -0.9739 H         1 <0>         0.1480
     42 H10         1.3006   -5.8989    2.9695 H         1 <0>         0.1402
     43 H11         2.8407   -9.8559    3.5618 H         1 <0>         0.1408
     44 H12         3.5496   -9.9715    1.2393 H         1 <0>         0.1559
     45 H13         1.5370   -8.8379    6.5445 H         1 <0>         0.4350
     46 H14         0.8286   -5.9776    4.7182 H         1 <0>         0.4426
     47 H15         0.7086   -6.7088    6.2260 H         1 <0>         0.4362
     48 H16         4.2993   -8.8391   -2.7033 H         1 <0>         0.4095
     49 H17         4.0295  -10.3072   -4.7736 H         1 <0>         0.1259
     50 H18         4.6062  -10.4631   -7.1610 H         1 <0>         0.1300
     51 H19         5.3138   -8.4531   -8.3923 H         1 <0>         0.1277
     52 H20         5.4450   -6.2817   -7.2413 H         1 <0>         0.1294
     53 H21         4.8604   -6.1129   -4.8567 H         1 <0>         0.1386
     54 H22         2.2604   -9.6574    5.2686 H         1 <0>         0.4454
@<TRIPOS>BOND
     1    1    2 1
     2    1   33 1
     3    1   34 1
     4    1   35 1
     5    2    3 1
     6    2   36 1
     7    2   37 1
     8    3    4 2
     9    3    5 2
    10    3    6 1
    11    6   10 1
    12    6    7 2
    13    7    8 1
    14    7   38 1
    15    8    9 2
    16    8   11 1
    17    9   10 1
    18    9   39 1
    19   11   16 ar
    20   11   12 ar
    21   12   13 ar
    22   12   40 1
    23   13   14 ar
    24   13   24 1
    25   14   15 ar
    26   14   41 1
    27   15   20 ar
    28   15   16 ar
    29   16   17 ar
    30   17   18 ar
    31   17   42 1
    32   18   19 ar
    33   18   21 1
    34   19   20 ar
    35   19   43 1
    36   20   44 1
    37   21   22 2
    38   21   23 1
    39   22   45 1
    40   22   54 1
    41   23   46 1
    42   23   47 1
    43   24   25 2
    44   24   26 am
    45   26   27 1
    46   26   48 1
    47   27   32 ar
    48   27   28 ar
    49   28   29 ar
    50   28   49 1
    51   29   30 ar
    52   29   50 1
    53   30   31 ar
    54   30   51 1
    55   31   32 ar
    56   31   52 1
    57   32   53 1
@<TRIPOS>MOLECULE
CHEMBL292977
   45    48     0     0     0
SMALL
USER_CHARGES

@<TRIPOS>ATOM
      1 C1         -0.0169    1.3524    0.0711 C.ar      1 <0>        -0.1093
      2 C2          1.1597    2.1022    0.0611 C.ar      1 <0>        -0.1008
      3 C3          2.3821    1.5119    0.0359 C.ar      1 <0>        -0.1121
      4 C4          2.4754    0.1039    0.0193 C.ar      1 <0>        -0.0298
      5 C5          3.7144   -0.5349   -0.0060 C.ar      1 <0>        -0.0945
      6 C6          3.7722   -1.9270   -0.0214 C.ar      1 <0>        -0.0191
      7 C7          5.0138   -2.5979   -0.0466 C.ar      1 <0>        -0.1319
      8 C8          5.0499   -3.9570   -0.0609 C.ar      1 <0>         0.1512
      9 C9          3.8643   -4.7254   -0.0512 C.ar      1 <0>        -0.1663
     10 C10         2.6216   -4.1216   -0.0272 C.ar      1 <0>        -0.0328
     11 C11         2.5346   -2.7161   -0.0111 C.ar      1 <0>        -0.0761
     12 C12         1.2948   -2.0766    0.0143 C.ar      1 <0>        -0.0695
     13 C13         1.2387   -0.6842    0.0298 C.ar      1 <0>        -0.0534
     14 C14         0.0016   -0.0049    0.0562 C.ar      1 <0>        -0.1057
     15 C15         3.9547   -6.1977   -0.0676 C.2       1 <0>         0.5658
     16 O1          5.0428   -6.7398   -0.0892 O.2       1 <0>        -0.4852
     17 N1          2.8311   -6.9419   -0.0585 N.am      1 <0>        -0.6767
     18 C16         2.9129   -8.3289   -0.1711 C.ar      1 <0>         0.2293
     19 C17         3.9743   -9.0116    0.4145 C.ar      1 <0>        -0.1257
     20 C18         4.0578  -10.3815    0.3051 C.ar      1 <0>        -0.0319
     21 C19         3.0754  -11.0860   -0.3949 C.ar      1 <0>        -0.1840
     22 C20         2.0109  -10.3978   -0.9818 C.ar      1 <0>        -0.0311
     23 C21         1.9298   -9.0283   -0.8640 C.ar      1 <0>        -0.1485
     24 C22         3.1624  -12.5559   -0.5146 C.cat     1 <0>         0.6033
     25 N2          2.2245  -13.2266   -1.1826 N.pl3     1 <0>        -0.7659
     26 N3          4.1786  -13.2111    0.0454 N.pl3     1 <0>        -0.7647
     27 O2          6.2508   -4.5892   -0.0855 O.3       1 <0>        -0.4791
     28 H1         -0.9671    1.8652    0.0959 H         1 <0>         0.1278
     29 H2          1.0964    3.1802    0.0733 H         1 <0>         0.1284
     30 H3          3.2773    2.1160    0.0282 H         1 <0>         0.1341
     31 H4          4.6247    0.0463   -0.0141 H         1 <0>         0.1404
     32 H5          5.9339   -2.0325   -0.0548 H         1 <0>         0.1451
     33 H6          1.7244   -4.7227   -0.0208 H         1 <0>         0.1351
     34 H7          0.3841   -2.6572    0.0216 H         1 <0>         0.1386
     35 H8         -0.9240   -0.5613    0.0648 H         1 <0>         0.1324
     36 H9          1.9655   -6.5124    0.0263 H         1 <0>         0.4195
     37 H10         4.7338   -8.4663    0.9553 H         1 <0>         0.1627
     38 H11         4.8822  -10.9109    0.7596 H         1 <0>         0.1409
     39 H12         1.2501  -10.9398   -1.5238 H         1 <0>         0.1416
     40 H13         1.1047   -8.4961   -1.3138 H         1 <0>         0.1515
     41 H14         1.4847  -12.7497   -1.5902 H         1 <0>         0.4431
     42 H15         4.8613  -12.7228    0.5317 H         1 <0>         0.4439
     43 H16         4.2357  -14.1762   -0.0332 H         1 <0>         0.4327
     44 H17         6.6122   -4.7813    0.7906 H         1 <0>         0.3941
     45 H18         2.2816  -14.1917   -1.2612 H         1 <0>         0.4326
@<TRIPOS>BOND
     1    1   14 ar
     2    1    2 ar
     3    1   28 1
     4    2    3 ar
     5    2   29 1
     6    3    4 ar
     7    3   30 1
     8    4   13 ar
     9    4    5 ar
    10    5    6 ar
    11    5   31 1
    12    6   11 ar
    13    6    7 ar
    14    7    8 ar
    15    7   32 1
    16    8    9 ar
    17    8   27 1
    18    9   10 ar
    19    9   15 1
    20   10   11 ar
    21   10   33 1
    22   11   12 ar
    23   12   13 ar
    24   12   34 1
    25   13   14 ar
    26   14   35 1
    27   15   16 2
    28   15   17 am
    29   17   18 1
    30   17   36 1
    31   18   23 ar
    32   18   19 ar
    33   19   20 ar
    34   19   37 1
    35   20   21 ar
    36   20   38 1
    37   21   22 ar
    38   21   24 1
    39   22   23 ar
    40   22   39 1
    41   23   40 1
    42   24   25 2
    43   24   26 1
    44   25   41 1
    45   25   45 1
    46   26   42 1
    47   26   43 1
    48   27   44 1
@<TRIPOS>MOLECULE
CHEMBL559562
   45    48     0     0     0
SMALL
USER_CHARGES

@<TRIPOS>ATOM
      1 C1         -0.0167    1.4030   -0.0015 C.ar      1 <0>        -0.0674
      2 C2          1.1498    2.0983   -0.0160 C.ar      1 <0>        -0.0983
      3 C3          2.3858    1.4304   -0.0404 C.ar      1 <0>        -0.1453
      4 C4          2.4379    0.0471   -0.0497 C.ar      1 <0>        -0.0225
      5 C5          1.2441   -0.6897   -0.0345 C.ar      1 <0>        -0.0486
      6 C6          0.0023   -0.0042   -0.0104 C.ar      1 <0>        -0.0245
      7 C7         -1.1920   -0.7410    0.0039 C.ar      1 <0>        -0.0411
      8 C8         -1.1397   -2.1248   -0.0058 C.ar      1 <0>        -0.0972
      9 C9          0.0975   -2.7928   -0.0292 C.ar      1 <0>        -0.0824
     10 C10         1.2632   -2.0974   -0.0439 C.ar      1 <0>        -0.0940
     11 C11        -2.3945   -2.9060    0.0092 C.2       1 <0>         0.5520
     12 O1         -3.4667   -2.3335    0.0299 O.2       1 <0>        -0.5036
     13 N1         -2.3498   -4.2530   -0.0002 N.am      1 <0>        -0.6614
     14 C12        -3.5314   -4.9925    0.1122 C.ar      1 <0>         0.1315
     15 C13        -4.7032   -4.5266   -0.4702 C.ar      1 <0>        -0.1155
     16 C14        -5.8658   -5.2606   -0.3566 C.ar      1 <0>        -0.0894
     17 C15        -5.8704   -6.4606    0.3363 C.ar      1 <0>        -0.1013
     18 C16        -4.7055   -6.9271    0.9174 C.ar      1 <0>        -0.0789
     19 C17        -3.5357   -6.1971    0.8010 C.ar      1 <0>        -0.1275
     20 C18        -4.9721   -8.2465    1.6102 C.3       1 <0>        -0.0831
     21 C19        -6.5060   -8.3187    1.7650 C.3       1 <0>        -0.1218
     22 C20        -6.9987   -7.4352    0.5993 C.3       1 <0>        -0.0851
     23 C21         3.6421    2.2123   -0.0569 C.cat     1 <0>         0.6012
     24 N2          3.6703    3.4151   -0.6271 N.pl3     1 <0>        -0.7561
     25 N3          4.7443    1.7129    0.4985 N.pl3     1 <0>        -0.7596
     26 H1         -0.9591    1.9300    0.0214 H         1 <0>         0.1534
     27 H2          1.1271    3.1780   -0.0091 H         1 <0>         0.1407
     28 H3          3.3906   -0.4613   -0.0688 H         1 <0>         0.1471
     29 H4         -2.1447   -0.2327    0.0227 H         1 <0>         0.1573
     30 H5          0.1206   -3.8725   -0.0358 H         1 <0>         0.1393
     31 H6          2.2058   -2.6243   -0.0629 H         1 <0>         0.1466
     32 H7         -1.4982   -4.7095   -0.0848 H         1 <0>         0.4101
     33 H8         -4.7043   -3.5914   -1.0105 H         1 <0>         0.1398
     34 H9         -6.7767   -4.8981   -0.8096 H         1 <0>         0.1269
     35 H10        -2.6250   -6.5635    1.2512 H         1 <0>         0.1239
     36 H11        -4.6144   -9.0743    0.9979 H         1 <0>         0.0832
     37 H12        -4.4920   -8.2636    2.5886 H         1 <0>         0.0765
     38 H13        -6.8592   -9.3435    1.6505 H         1 <0>         0.0800
     39 H14        -6.8186   -7.9048    2.7237 H         1 <0>         0.0740
     40 H15        -7.9026   -6.8985    0.8874 H         1 <0>         0.0775
     41 H16        -7.1855   -8.0450   -0.2846 H         1 <0>         0.0828
     42 H17         2.8673    3.7789   -1.0317 H         1 <0>         0.4474
     43 H18         4.7238    0.8366    0.9139 H         1 <0>         0.4458
     44 H19         5.5678    2.2253    0.4877 H         1 <0>         0.4339
     45 H20         4.4938    3.9276   -0.6378 H         1 <0>         0.4337
@<TRIPOS>BOND
     1    1    6 ar
     2    1    2 ar
     3    1   26 1
     4    2    3 ar
     5    2   27 1
     6    3    4 ar
     7    3   23 1
     8    4    5 ar
     9    4   28 1
    10    5   10 ar
    11    5    6 ar
    12    6    7 ar
    13    7    8 ar
    14    7   29 1
    15    8    9 ar
    16    8   11 1
    17    9   10 ar
    18    9   30 1
    19   10   31 1
    20   11   12 2
    21   11   13 am
    22   13   14 1
    23   13   32 1
    24   14   19 ar
    25   14   15 ar
    26   15   16 ar
    27   15   33 1
    28   16   17 ar
    29   16   34 1
    30   17   22 1
    31   17   18 ar
    32   18   19 ar
    33   18   20 1
    34   19   35 1
    35   20   21 1
    36   20   36 1
    37   20   37 1
    38   21   22 1
    39   21   38 1
    40   21   39 1
    41   22   40 1
    42   22   41 1
    43   23   24 2
    44   23   25 1
    45   24   42 1
    46   24   45 1
    47   25   43 1
    48   25   44 1
@<TRIPOS>MOLECULE
CHEMBL177557
   63    64     0     0     0
SMALL
USER_CHARGES

@<TRIPOS>ATOM
      1 C1          0.6124    2.0081   -0.5535 C.3       1 <0>        -0.1591
      2 C2          0.4389    0.4881   -0.5344 C.3       1 <0>         0.1298
      3 H1          0.9837    0.0496   -1.3705 H         1 <0>         0.1202
      4 C3          0.9780   -0.0628    0.7606 C.2       1 <0>         0.5228
      5 O1          0.2462   -0.6716    1.5120 O.2       1 <0>        -0.5224
      6 N1          2.2735    0.1211    1.0837 N.am      1 <0>        -0.7198
      7 C4          2.7976   -0.4144    2.3426 C.3       1 <0>         0.1430
      8 H2          2.0280   -0.3539    3.1121 H         1 <0>         0.1077
      9 C5          3.2083   -1.8753    2.1446 C.3       1 <0>        -0.1379
     10 C6          3.7253   -2.4454    3.4674 C.3       1 <0>        -0.1367
     11 C7          4.9581   -1.6528    3.9133 C.3       1 <0>         0.1071
     12 N2          4.6096   -0.2265    3.9661 N.pl3     1 <0>        -0.6335
     13 C8          4.0194    0.4017    2.7761 C.3       1 <0>         0.3212
     14 O2          3.6174    1.7370    3.0881 O.3       1 <0>        -0.5453
     15 C9          4.8300    0.5032    5.1019 C.cat     1 <0>         0.7469
     16 N3          3.9541    1.4345    5.4756 N.pl3     1 <0>        -0.7774
     17 N4          5.9205    0.2825    5.8342 N.pl3     1 <0>        -0.7854
     18 N5         -0.9835    0.1574   -0.6511 N.am      1 <0>        -0.7108
     19 C10        -1.5594    0.0783   -1.8671 C.2       1 <0>         0.5315
     20 O3         -0.9000    0.2808   -2.8647 O.2       1 <0>        -0.5201
     21 C11        -3.0226   -0.2618   -1.9872 C.3       1 <0>         0.1521
     22 H3         -3.2054   -1.2411   -1.5450 H         1 <0>         0.1343
     23 C12        -3.8532    0.7925   -1.2528 C.3       1 <0>         0.0642
     24 O4         -3.5268    2.0902   -1.7543 O.3       1 <0>        -0.5649
     25 N6         -3.4039   -0.2857   -3.4015 N.am      1 <0>        -0.6876
     26 C13        -4.4580   -1.0234   -3.8029 C.2       1 <0>         0.6547
     27 O5         -5.0921   -1.6686   -2.9917 O.2       1 <0>        -0.5720
     28 O6         -4.8084   -1.0453   -5.1026 O.3       1 <0>        -0.3535
     29 C14        -5.9359   -1.8486   -5.4571 C.3       1 <0>         0.1291
     30 C15        -6.1761   -1.7500   -6.9416 C.ar      1 <0>        -0.1036
     31 C16        -7.0055   -0.7647   -7.4436 C.ar      1 <0>        -0.0929
     32 C17        -7.2259   -0.6742   -8.8053 C.ar      1 <0>        -0.1228
     33 C18        -6.6164   -1.5689   -9.6650 C.ar      1 <0>        -0.1055
     34 C19        -5.7863   -2.5537   -9.1630 C.ar      1 <0>        -0.1230
     35 C20        -5.5625   -2.6414   -7.8017 C.ar      1 <0>        -0.0932
     36 H4          1.6708    2.2541   -0.4666 H         1 <0>         0.0701
     37 H5          0.2225    2.4065   -1.4901 H         1 <0>         0.0829
     38 H6          0.0677    2.4465    0.2826 H         1 <0>         0.0661
     39 H7          2.8589    0.6081    0.4828 H         1 <0>         0.4082
     40 H8          2.3458   -2.4532    1.8126 H         1 <0>         0.0953
     41 H9          3.9949   -1.9326    1.3923 H         1 <0>         0.0811
     42 H10         2.9474   -2.3658    4.2267 H         1 <0>         0.0809
     43 H11         3.9957   -3.4925    3.3313 H         1 <0>         0.1053
     44 H12         5.2711   -1.9893    4.9016 H         1 <0>         0.0990
     45 H13         5.7680   -1.8049    3.1998 H         1 <0>         0.1016
     46 H14         4.7529    0.4177    1.9701 H         1 <0>         0.1113
     47 H15         4.3523    2.3317    3.2915 H         1 <0>         0.3955
     48 H16         4.1533    2.0137    6.2278 H         1 <0>         0.4336
     49 H17         6.5215   -0.4428    5.6027 H         1 <0>         0.4404
     50 H18         6.1136    0.8470    6.5989 H         1 <0>         0.4393
     51 H19        -1.5109   -0.0045    0.1467 H         1 <0>         0.4116
     52 H20        -4.9133    0.5968   -1.4138 H         1 <0>         0.0707
     53 H21        -3.6338    0.7495   -0.1860 H         1 <0>         0.0643
     54 H22        -4.0170    2.8094   -1.3329 H         1 <0>         0.3871
     55 H23        -2.8977    0.2294   -4.0491 H         1 <0>         0.4210
     56 H24        -5.7410   -2.8869   -5.1887 H         1 <0>         0.0796
     57 H25        -6.8170   -1.4943   -4.9222 H         1 <0>         0.0797
     58 H26        -7.4816   -0.0657   -6.7719 H         1 <0>         0.1248
     59 H27        -7.8744    0.0952   -9.1974 H         1 <0>         0.1271
     60 H28        -6.7891   -1.4987  -10.7287 H         1 <0>         0.1262
     61 H29        -5.3104   -3.2529   -9.8347 H         1 <0>         0.1269
     62 H30        -4.9110   -3.4085   -7.4099 H         1 <0>         0.1246
     63 H31         3.1170    1.5335    4.9956 H         1 <0>         0.4487
@<TRIPOS>BOND
     1    1    2 1
     2    1   36 1
     3    1   37 1
     4    1   38 1
     5    2    3 1
     6    2    4 1
     7    2   18 1
     8    4    5 2
     9    4    6 am
    10    6    7 1
    11    6   39 1
    12    7    8 1
    13    7   13 1
    14    7    9 1
    15    9   10 1
    16    9   40 1
    17    9   41 1
    18   10   11 1
    19   10   42 1
    20   10   43 1
    21   11   12 1
    22   11   44 1
    23   11   45 1
    24   12   13 1
    25   12   15 1
    26   13   14 1
    27   13   46 1
    28   14   47 1
    29   15   16 2
    30   15   17 1
    31   16   48 1
    32   16   63 1
    33   17   49 1
    34   17   50 1
    35   18   19 am
    36   18   51 1
    37   19   20 2
    38   19   21 1
    39   21   22 1
    40   21   23 1
    41   21   25 1
    42   23   24 1
    43   23   52 1
    44   23   53 1
    45   24   54 1
    46   25   26 am
    47   25   55 1
    48   26   27 2
    49   26   28 1
    50   28   29 1
    51   29   30 1
    52   29   56 1
    53   29   57 1
    54   30   35 ar
    55   30   31 ar
    56   31   32 ar
    57   31   58 1
    58   32   33 ar
    59   32   59 1
    60   33   34 ar
    61   33   60 1
    62   34   35 ar
    63   34   61 1
    64   35   62 1
@<TRIPOS>MOLECULE
CHEMBL177557__1
   63    64     0     0     0
SMALL
USER_CHARGES

@<TRIPOS>ATOM
      1 C1         -0.0187    1.5258    0.0104 C.3       1 <0>        -0.1603
      2 C2          0.0021   -0.0041    0.0020 C.3       1 <0>         0.1296
      3 H1          0.5123   -0.3556   -0.8948 H         1 <0>         0.1212
      4 C3          0.7309   -0.5033    1.2229 C.2       1 <0>         0.5201
      5 O1          0.1587   -1.2128    2.0229 O.2       1 <0>        -0.5237
      6 N1          2.0187   -0.1613    1.4257 N.am      1 <0>        -0.7201
      7 C4          2.7273   -0.6466    2.6126 C.3       1 <0>         0.1535
      8 H2          2.0358   -0.6975    3.4537 H         1 <0>         0.1121
      9 C5          3.2960   -2.0398    2.3339 C.3       1 <0>        -0.1387
     10 C6          4.0082   -2.5614    3.5841 C.3       1 <0>        -0.1372
     11 C7          5.1700   -1.6258    3.9327 C.3       1 <0>         0.1067
     12 N2          4.6527   -0.2565    4.0600 N.pl3     1 <0>        -0.6257
     13 C8          3.8741    0.3111    2.9507 C.3       1 <0>         0.3131
     14 O2          4.7167    0.4719    1.8078 O.3       1 <0>        -0.5402
     15 C9          4.8910    0.4763    5.1901 C.cat     1 <0>         0.7529
     16 N3          4.9347   -0.1259    6.3774 N.pl3     1 <0>        -0.7794
     17 N4          5.0793    1.7920    5.1034 N.pl3     1 <0>        -0.7872
     18 N5         -1.3723   -0.5112    0.0124 N.am      1 <0>        -0.7109
     19 C10        -2.0508   -0.6427   -1.1446 C.2       1 <0>         0.5313
     20 O3         -1.5236   -0.3413   -2.1944 O.2       1 <0>        -0.5195
     21 C11        -3.4646   -1.1643   -1.1339 C.3       1 <0>         0.1520
     22 H3         -3.4790   -2.1662   -0.7048 H         1 <0>         0.1344
     23 C12        -4.3441   -0.2367   -0.2931 C.3       1 <0>         0.0643
     24 O4         -4.2337    1.1001   -0.7857 O.3       1 <0>        -0.5648
     25 N6         -3.9776   -1.2130   -2.5053 N.am      1 <0>        -0.6875
     26 C13        -4.9655   -2.0722   -2.8252 C.2       1 <0>         0.6547
     27 O5         -5.4308   -2.8063   -1.9761 O.2       1 <0>        -0.5721
     28 O6         -5.4369   -2.1169   -4.0855 O.3       1 <0>        -0.3535
     29 C14        -6.4844   -3.0512   -4.3536 C.3       1 <0>         0.1291
     30 C15        -6.8803   -2.9593   -5.8048 C.ar      1 <0>        -0.1036
     31 C16        -7.8719   -2.0794   -6.1963 C.ar      1 <0>        -0.0929
     32 C17        -8.2351   -1.9951   -7.5274 C.ar      1 <0>        -0.1228
     33 C18        -7.6063   -2.7904   -8.4671 C.ar      1 <0>        -0.1055
     34 C19        -6.6140   -3.6697   -8.0757 C.ar      1 <0>        -0.1229
     35 C20        -6.2479   -3.7509   -6.7452 C.ar      1 <0>        -0.0931
     36 H4          1.0039    1.9031    0.0027 H         1 <0>         0.0700
     37 H5         -0.5459    1.8868   -0.8726 H         1 <0>         0.0840
     38 H6         -0.5289    1.8773    0.9072 H         1 <0>         0.0655
     39 H7          2.4764    0.4061    0.7859 H         1 <0>         0.4139
     40 H8          2.4840   -2.7172    2.0694 H         1 <0>         0.0881
     41 H9          4.0055   -1.9840    1.5084 H         1 <0>         0.0866
     42 H10         3.3051   -2.5941    4.4164 H         1 <0>         0.0781
     43 H11         4.3927   -3.5632    3.3924 H         1 <0>         0.1021
     44 H12         5.6186   -1.9361    4.8764 H         1 <0>         0.0937
     45 H13         5.9183   -1.6616    3.1409 H         1 <0>         0.1061
     46 H14         3.4674    1.2782    3.2464 H         1 <0>         0.0988
     47 H15         5.4652    1.0670    1.9516 H         1 <0>         0.3932
     48 H16         5.1037    0.3938    7.1788 H         1 <0>         0.4407
     49 H17         5.0475    2.2305    4.2388 H         1 <0>         0.4380
     50 H18         5.2483    2.3116    5.9048 H         1 <0>         0.4416
     51 H19        -1.7940   -0.7522    0.8520 H         1 <0>         0.4115
     52 H20        -5.3821   -0.5632   -0.3576 H         1 <0>         0.0708
     53 H21        -4.0169   -0.2692    0.7461 H         1 <0>         0.0642
     54 H22        -4.7661    1.7439   -0.2987 H         1 <0>         0.3869
     55 H23        -3.6062   -0.6270   -3.1832 H         1 <0>         0.4210
     56 H24        -6.1357   -4.0606   -4.1353 H         1 <0>         0.0796
     57 H25        -7.3459   -2.8210   -3.7267 H         1 <0>         0.0797
     58 H26        -8.3632   -1.4580   -5.4622 H         1 <0>         0.1247
     59 H27        -9.0103   -1.3082   -7.8332 H         1 <0>         0.1271
     60 H28        -7.8904   -2.7251   -9.5070 H         1 <0>         0.1263
     61 H29        -6.1230   -4.2913   -8.8098 H         1 <0>         0.1270
     62 H30        -5.4701   -4.4352   -6.4399 H         1 <0>         0.1246
     63 H31         4.7976   -1.0841    6.4406 H         1 <0>         0.4429
@<TRIPOS>BOND
     1    1    2 1
     2    1   36 1
     3    1   37 1
     4    1   38 1
     5    2    3 1
     6    2    4 1
     7    2   18 1
     8    4    5 2
     9    4    6 am
    10    6    7 1
    11    6   39 1
    12    7    8 1
    13    7   13 1
    14    7    9 1
    15    9   10 1
    16    9   40 1
    17    9   41 1
    18   10   11 1
    19   10   42 1
    20   10   43 1
    21   11   12 1
    22   11   44 1
    23   11   45 1
    24   12   13 1
    25   12   15 1
    26   13   14 1
    27   13   46 1
    28   14   47 1
    29   15   16 2
    30   15   17 1
    31   16   48 1
    32   16   63 1
    33   17   49 1
    34   17   50 1
    35   18   19 am
    36   18   51 1
    37   19   20 2
    38   19   21 1
    39   21   22 1
    40   21   23 1
    41   21   25 1
    42   23   24 1
    43   23   52 1
    44   23   53 1
    45   24   54 1
    46   25   26 am
    47   25   55 1
    48   26   27 2
    49   26   28 1
    50   28   29 1
    51   29   30 1
    52   29   56 1
    53   29   57 1
    54   30   35 ar
    55   30   31 ar
    56   31   32 ar
    57   31   58 1
    58   32   33 ar
    59   32   59 1
    60   33   34 ar
    61   33   60 1
    62   34   35 ar
    63   34   61 1
    64   35   62 1
@<TRIPOS>MOLECULE
CHEMBL550621
   42    44     0     0     0
SMALL
USER_CHARGES

@<TRIPOS>ATOM
      1 C1         -0.0167    1.3796    0.0096 C.ar      1 <0>        -0.0874
      2 C2          1.1661    2.0888    0.0021 C.ar      1 <0>        -0.0911
      3 C3          2.3857    1.4065   -0.0132 C.ar      1 <0>         0.0517
      4 C4          2.3967    0.0090   -0.0208 C.ar      1 <0>        -0.0910
      5 C5          1.2058   -0.6865   -0.0132 C.ar      1 <0>        -0.0872
      6 C6          0.0021   -0.0041    0.0020 C.ar      1 <0>        -0.1611
      7 C7         -1.2948   -0.7715    0.0108 C.3       1 <0>         0.0455
      8 N1         -1.7300   -1.0135   -1.3712 N.4       1 <0>        -0.6372
      9 C8          3.6181    2.1357   -0.0215 C.1       1 <0>        -0.1118
     10 C9          4.6284    2.7336   -0.0283 C.1       1 <0>        -0.0976
     11 C10         5.8608    3.4629   -0.0367 C.ar      1 <0>         0.0498
     12 C11         5.8399    4.8707   -0.0235 C.ar      1 <0>        -0.0861
     13 C12         6.9946    5.5826   -0.0310 C.ar      1 <0>        -0.0840
     14 C13         8.2347    4.9150   -0.0526 C.ar      1 <0>        -0.0595
     15 C14         9.4384    5.6338   -0.0605 C.ar      1 <0>        -0.0130
     16 C15        10.6423    4.9490   -0.0815 C.ar      1 <0>        -0.1464
     17 C16        10.6645    3.5431   -0.0952 C.ar      1 <0>        -0.0905
     18 C17         9.5100    2.8296   -0.0878 C.ar      1 <0>        -0.0767
     19 C18         8.2697    3.4964   -0.0661 C.ar      1 <0>        -0.0127
     20 C19         7.0667    2.7770   -0.0519 C.ar      1 <0>        -0.0846
     21 C20        11.9144    5.7026   -0.0899 C.cat     1 <0>         0.5985
     22 N2         13.0752    5.0495   -0.1100 N.pl3     1 <0>        -0.7586
     23 N3         11.8996    7.0345   -0.0774 N.pl3     1 <0>        -0.7624
     24 H1         -0.9599    1.9055    0.0260 H         1 <0>         0.1411
     25 H2          1.1500    3.1686    0.0078 H         1 <0>         0.1414
     26 H3          3.3354   -0.5250   -0.0330 H         1 <0>         0.1416
     27 H4          1.2127   -1.7665   -0.0194 H         1 <0>         0.1412
     28 H5         -1.1492   -1.7252    0.5181 H         1 <0>         0.1431
     29 H6         -2.0556   -0.1934    0.5353 H         1 <0>         0.1431
     30 H7         -1.8648   -0.1306   -1.8408 H         1 <0>         0.4351
     31 H8         -1.0258   -1.5486   -1.8568 H         1 <0>         0.4351
     32 H9          4.8931    5.3901   -0.0077 H         1 <0>         0.1426
     33 H10         6.9631    6.6621   -0.0208 H         1 <0>         0.1479
     34 H11         9.4271    6.7137   -0.0508 H         1 <0>         0.1454
     35 H12        11.6118    3.0248   -0.1122 H         1 <0>         0.1387
     36 H13         9.5425    1.7501   -0.0985 H         1 <0>         0.1516
     37 H14         7.0783    1.6971   -0.0575 H         1 <0>         0.1464
     38 H15        13.0859    4.0796   -0.1191 H         1 <0>         0.4449
     39 H16        11.0543    7.5100   -0.0627 H         1 <0>         0.4433
     40 H17        12.7342    7.5288   -0.0829 H         1 <0>         0.4356
     41 H18        13.9097    5.5438   -0.1155 H         1 <0>         0.4350
     42 H19        -2.5984   -1.5273   -1.3654 H         1 <0>         0.4406
@<TRIPOS>BOND
     1    1    6 ar
     2    1    2 ar
     3    1   24 1
     4    2    3 ar
     5    2   25 1
     6    3    4 ar
     7    3    9 1
     8    4    5 ar
     9    4   26 1
    10    5    6 ar
    11    5   27 1
    12    6    7 1
    13    7    8 1
    14    7   28 1
    15    7   29 1
    16    8   30 1
    17    8   31 1
    18    8   42 1
    19    9   10 3
    20   10   11 1
    21   11   20 ar
    22   11   12 ar
    23   12   13 ar
    24   12   32 1
    25   13   14 ar
    26   13   33 1
    27   14   19 ar
    28   14   15 ar
    29   15   16 ar
    30   15   34 1
    31   16   17 ar
    32   16   21 1
    33   17   18 ar
    34   17   35 1
    35   18   19 ar
    36   18   36 1
    37   19   20 ar
    38   20   37 1
    39   21   22 2
    40   21   23 1
    41   22   38 1
    42   22   41 1
    43   23   39 1
    44   23   40 1
@<TRIPOS>MOLECULE
CHEMBL158405
   60    61     0     0     0
SMALL
USER_CHARGES

@<TRIPOS>ATOM
      1 C1         -0.0187    1.5258    0.0104 C.3       1 <0>        -0.1593
      2 C2          0.0021   -0.0041    0.0020 C.3       1 <0>         0.1287
      3 H1         -1.0205   -0.3814    0.0098 H         1 <0>         0.1188
      4 C3          0.7074   -0.4901   -1.2379 C.2       1 <0>         0.5168
      5 O1          1.7039   -1.1744   -1.1398 O.2       1 <0>        -0.5217
      6 N1          0.2309   -0.1642   -2.4557 N.am      1 <0>        -0.7263
      7 C4          0.9167   -0.6367   -3.6611 C.3       1 <0>         0.1464
      8 C5          0.1878   -0.1374   -4.8820 C.ar      1 <0>        -0.0394
      9 C6         -0.8285   -0.8956   -5.4355 C.ar      1 <0>        -0.0950
     10 C7         -1.4993   -0.4443   -6.5535 C.ar      1 <0>        -0.0574
     11 C8         -1.1512    0.7796   -7.1255 C.ar      1 <0>        -0.1495
     12 C9         -0.1257    1.5397   -6.5623 C.ar      1 <0>        -0.0578
     13 C10         0.5340    1.0797   -5.4412 C.ar      1 <0>        -0.0952
     14 C11        -1.8662    1.2693   -8.3249 C.cat     1 <0>         0.5999
     15 N2         -1.5317    2.4378   -8.8686 N.pl3     1 <0>        -0.7604
     16 N3         -2.8441    0.5415   -8.8604 N.pl3     1 <0>        -0.7601
     17 N4          0.7106   -0.4894    1.1889 N.am      1 <0>        -0.7136
     18 C12         0.0512   -0.6335    2.3554 C.2       1 <0>         0.5343
     19 O2         -1.1288   -0.3614    2.4226 O.2       1 <0>        -0.5162
     20 C13         0.7801   -1.1327    3.5763 C.3       1 <0>         0.1312
     21 H2          1.1839   -2.1254    3.3778 H         1 <0>         0.1347
     22 C14         1.9243   -0.1749    3.9144 C.3       1 <0>         0.0533
     23 O3          1.4091    1.1500    4.0604 O.3       1 <0>        -0.5587
     24 N5         -0.1498   -1.2008    4.7064 N.pl3     1 <0>        -1.0953
     25 S1          0.0009   -2.4069    5.8311 S.o2      1 <0>         2.6057
     26 O4         -1.0602   -2.1813    6.7490 O.2       1 <0>        -0.9387
     27 O5          0.0587   -3.6062    5.0711 O.2       1 <0>        -0.9458
     28 C15         1.5979   -2.0986    6.6342 C.3       1 <0>        -0.5837
     29 C16         1.8413   -3.1482    7.6878 C.ar      1 <0>        -0.1001
     30 C17         1.4055   -2.9412    8.9832 C.ar      1 <0>        -0.1034
     31 C18         1.6288   -3.9039    9.9497 C.ar      1 <0>        -0.1159
     32 C19         2.2874   -5.0739    9.6207 C.ar      1 <0>        -0.1061
     33 C20         2.7224   -5.2813    8.3251 C.ar      1 <0>        -0.1168
     34 C21         2.4954   -4.3204    7.3576 C.ar      1 <0>        -0.1047
     35 H3          1.0039    1.9031    0.0027 H         1 <0>         0.0665
     36 H4         -0.5459    1.8868   -0.8726 H         1 <0>         0.0682
     37 H5         -0.5289    1.8773    0.9072 H         1 <0>         0.0820
     38 H6         -0.5660    0.3831   -2.5342 H         1 <0>         0.4055
     39 H7          1.9393   -0.2594   -3.6688 H         1 <0>         0.0920
     40 H8          0.9314   -1.7265   -3.6671 H         1 <0>         0.0920
     41 H9         -1.0971   -1.8429   -4.9917 H         1 <0>         0.1518
     42 H10        -2.2920   -1.0374   -6.9851 H         1 <0>         0.1411
     43 H11         0.1486    2.4878   -7.0007 H         1 <0>         0.1409
     44 H12         1.3253    1.6690   -5.0018 H         1 <0>         0.1515
     45 H13        -2.0004    2.7588   -9.6548 H         1 <0>         0.4346
     46 H14        -3.0878   -0.3097   -8.4643 H         1 <0>         0.4448
     47 H15        -3.3128    0.8626   -9.6466 H         1 <0>         0.4346
     48 H16         1.6544   -0.7070    1.1351 H         1 <0>         0.4109
     49 H17         2.3954   -0.4863    4.8467 H         1 <0>         0.0654
     50 H18         2.6614   -0.1916    3.1116 H         1 <0>         0.0685
     51 H19         2.0806    1.8116    4.2757 H         1 <0>         0.3873
     52 H20        -0.8537   -0.5394    4.7958 H         1 <0>         0.4313
     53 H21         2.3930   -2.1399    5.8897 H         1 <0>         0.1390
     54 H22         1.5865   -1.1128    7.0991 H         1 <0>         0.1459
     55 H23         0.8909   -2.0271    9.2403 H         1 <0>         0.1312
     56 H24         1.2889   -3.7419   10.9620 H         1 <0>         0.1314
     57 H25         2.4625   -5.8258   10.3760 H         1 <0>         0.1296
     58 H26         3.2373   -6.1952    8.0681 H         1 <0>         0.1308
     59 H27         2.8319   -4.4840    6.3445 H         1 <0>         0.1299
     60 H28        -0.8192    2.9680   -8.4785 H         1 <0>         0.4446
@<TRIPOS>BOND
     1    1    2 1
     2    1   35 1
     3    1   36 1
     4    1   37 1
     5    2    3 1
     6    2    4 1
     7    2   17 1
     8    4    5 2
     9    4    6 am
    10    6    7 1
    11    6   38 1
    12    7    8 1
    13    7   39 1
    14    7   40 1
    15    8   13 ar
    16    8    9 ar
    17    9   10 ar
    18    9   41 1
    19   10   11 ar
    20   10   42 1
    21   11   12 ar
    22   11   14 1
    23   12   13 ar
    24   12   43 1
    25   13   44 1
    26   14   15 2
    27   14   16 1
    28   15   45 1
    29   15   60 1
    30   16   46 1
    31   16   47 1
    32   17   18 am
    33   17   48 1
    34   18   19 2
    35   18   20 1
    36   20   21 1
    37   20   22 1
    38   20   24 1
    39   22   23 1
    40   22   49 1
    41   22   50 1
    42   23   51 1
    43   24   25 1
    44   24   52 1
    45   25   26 2
    46   25   27 2
    47   25   28 1
    48   28   29 1
    49   28   53 1
    50   28   54 1
    51   29   34 ar
    52   29   30 ar
    53   30   31 ar
    54   30   55 1
    55   31   32 ar
    56   31   56 1
    57   32   33 ar
    58   32   57 1
    59   33   34 ar
    60   33   58 1
    61   34   59 1
@<TRIPOS>MOLECULE
CHEMBL597144
   74    78     0     0     0
SMALL
USER_CHARGES

@<TRIPOS>ATOM
      1 C1         -3.4159   -5.4129   -1.4048 C.3       1 <0>        -0.0459
      2 N1         -2.4232   -4.5477   -0.7536 N.4       1 <0>        -0.3887
      3 C2         -1.1346   -4.6734   -1.4472 C.3       1 <0>        -0.0021
      4 C3         -0.1050   -3.7582   -0.7809 C.3       1 <0>         0.0241
      5 N2          0.0406   -4.1362    0.6319 N.3       1 <0>        -0.5348
      6 C4         -1.2472   -4.0392    1.3336 C.3       1 <0>         0.0185
      7 C5         -2.2673   -4.9521    0.6498 C.3       1 <0>        -0.0016
      8 C6          1.0638   -3.3158    1.2936 C.3       1 <0>         0.0976
      9 C7          1.3605   -3.8859    2.6567 C.ar      1 <0>        -0.1052
     10 C8          0.6339   -3.4630    3.7546 C.ar      1 <0>        -0.0942
     11 C9          0.9037   -3.9832    5.0052 C.ar      1 <0>        -0.1177
     12 C10         1.9057   -4.9322    5.1594 C.ar      1 <0>         0.1682
     13 C11         2.6333   -5.3552    4.0549 C.ar      1 <0>        -0.1391
     14 C12         2.3551   -4.8350    2.8060 C.ar      1 <0>        -0.0710
     15 N3          2.1819   -5.4610    6.4254 N.am      1 <0>        -0.6501
     16 C13         1.1861   -5.6265    7.3185 C.2       1 <0>         0.6522
     17 O1          0.0365   -5.4019    6.9952 O.2       1 <0>        -0.5500
     18 O2          1.4652   -6.0408    8.5689 O.3       1 <0>        -0.3465
     19 C14         0.3610   -6.1948    9.4629 C.3       1 <0>         0.0963
     20 C15         0.8704   -6.6686   10.8256 C.3       1 <0>         0.1321
     21 C16         1.9221   -5.7137   11.3285 C.ar      1 <0>        -0.1368
     22 C17         3.2161   -5.7955   10.8490 C.ar      1 <0>        -0.0773
     23 C18         4.1808   -4.9196   11.3104 C.ar      1 <0>        -0.1227
     24 C19         3.8515   -3.9615   12.2509 C.ar      1 <0>        -0.1016
     25 C20         2.5573   -3.8790   12.7297 C.ar      1 <0>        -0.1158
     26 C21         1.5916   -4.7522   12.2651 C.ar      1 <0>        -0.1061
     27 O3          1.4360   -7.9744   10.6949 O.3       1 <0>        -0.2920
     28 C22         1.4674   -8.7471   11.8110 C.ar      1 <0>         0.2160
     29 C23         1.0767   -8.2180   13.0176 C.ar      1 <0>        -0.2220
     30 C24         1.0950   -8.9765   14.1798 C.ar      1 <0>         0.0063
     31 C25         1.5133  -10.2914   14.1292 C.ar      1 <0>        -0.1253
     32 C26         1.9083  -10.8386   12.9274 C.ar      1 <0>        -0.0393
     33 C27         1.8991  -10.1000   11.7209 C.ar      1 <0>        -0.1602
     34 C28         2.3258  -10.8025   10.5805 C.2       1 <0>         0.0346
     35 C29         2.7055  -12.1030   10.6871 C.2       1 <0>        -0.2906
     36 S1          2.4986  -12.4368   12.4279 S.3       1 <0>         0.1427
     37 C30         3.1786  -13.0093    9.6299 C.cat     1 <0>         0.6511
     38 N4          3.5100  -14.2677    9.9284 N.pl3     1 <0>        -0.7598
     39 N5          3.2767  -12.5738    8.3718 N.pl3     1 <0>        -0.7625
     40 H1         -4.3726   -5.3187   -0.8911 H         1 <0>         0.1244
     41 H2         -3.5318   -5.1129   -2.4463 H         1 <0>         0.1253
     42 H3         -3.0800   -6.4488   -1.3603 H         1 <0>         0.1225
     43 H4         -0.7917   -5.7066   -1.3923 H         1 <0>         0.1370
     44 H5         -1.2546   -4.3855   -2.4917 H         1 <0>         0.1370
     45 H6          0.8552   -3.8624   -1.2861 H         1 <0>         0.1250
     46 H7         -0.4411   -2.7234   -0.8477 H         1 <0>         0.0625
     47 H8         -1.1203   -4.3484    2.3711 H         1 <0>         0.1259
     48 H9         -1.6021   -3.0090    1.3016 H         1 <0>         0.0618
     49 H10        -3.2271   -4.8708    1.1601 H         1 <0>         0.1353
     50 H11        -1.9186   -5.9839    0.6940 H         1 <0>         0.1361
     51 H12         1.9738   -3.3163    0.6936 H         1 <0>         0.0986
     52 H13         0.6984   -2.2943    1.3987 H         1 <0>         0.0577
     53 H14        -0.1452   -2.7248    3.6340 H         1 <0>         0.1247
     54 H15         0.3364   -3.6519    5.8624 H         1 <0>         0.1387
     55 H16         3.4131   -6.0932    4.1716 H         1 <0>         0.1310
     56 H17         2.9179   -5.1665    1.9460 H         1 <0>         0.1319
     57 H18         3.0899   -5.7083    6.6602 H         1 <0>         0.4199
     58 H19        -0.1492   -5.2385    9.5782 H         1 <0>         0.1011
     59 H20        -0.3338   -6.9309    9.0587 H         1 <0>         0.0878
     60 H21         0.0411   -6.7009   11.5322 H         1 <0>         0.1147
     61 H22         3.4734   -6.5441   10.1143 H         1 <0>         0.1239
     62 H23         5.1919   -4.9840   10.9363 H         1 <0>         0.1253
     63 H24         4.6054   -3.2775   12.6118 H         1 <0>         0.1278
     64 H25         2.3001   -3.1307   13.4647 H         1 <0>         0.1298
     65 H26         0.5796   -4.6854   12.6364 H         1 <0>         0.1258
     66 H27         0.7487   -7.1900   13.0625 H         1 <0>         0.1476
     67 H28         0.7844   -8.5408   15.1179 H         1 <0>         0.1552
     68 H29         1.5312  -10.8891   15.0285 H         1 <0>         0.1500
     69 H30         2.3515  -10.3092    9.6201 H         1 <0>         0.1494
     70 H31         3.4388  -14.5841   10.8426 H         1 <0>         0.4456
     71 H32         3.0359  -11.6595    8.1549 H         1 <0>         0.4434
     72 H33         3.5887  -13.1716    7.6745 H         1 <0>         0.4363
     73 H34         3.8221  -14.8654    9.2312 H         1 <0>         0.4371
     74 H35        -2.7346   -3.5888   -0.7946 H         1 <0>         0.4232
@<TRIPOS>BOND
     1    1    2 1
     2    1   40 1
     3    1   41 1
     4    1   42 1
     5    2    7 1
     6    2    3 1
     7    2   74 1
     8    3    4 1
     9    3   43 1
    10    3   44 1
    11    4    5 1
    12    4   45 1
    13    4   46 1
    14    5    6 1
    15    5    8 1
    16    6    7 1
    17    6   47 1
    18    6   48 1
    19    7   49 1
    20    7   50 1
    21    8    9 1
    22    8   51 1
    23    8   52 1
    24    9   14 ar
    25    9   10 ar
    26   10   11 ar
    27   10   53 1
    28   11   12 ar
    29   11   54 1
    30   12   13 ar
    31   12   15 1
    32   13   14 ar
    33   13   55 1
    34   14   56 1
    35   15   16 am
    36   15   57 1
    37   16   17 2
    38   16   18 1
    39   18   19 1
    40   19   20 1
    41   19   58 1
    42   19   59 1
    43   20   21 1
    44   20   27 1
    45   20   60 1
    46   21   26 ar
    47   21   22 ar
    48   22   23 ar
    49   22   61 1
    50   23   24 ar
    51   23   62 1
    52   24   25 ar
    53   24   63 1
    54   25   26 ar
    55   25   64 1
    56   26   65 1
    57   27   28 1
    58   28   33 ar
    59   28   29 ar
    60   29   30 ar
    61   29   66 1
    62   30   31 ar
    63   30   67 1
    64   31   32 ar
    65   31   68 1
    66   32   36 1
    67   32   33 ar
    68   33   34 1
    69   34   35 2
    70   34   69 1
    71   35   36 1
    72   35   37 1
    73   37   38 2
    74   37   39 1
    75   38   70 1
    76   38   73 1
    77   39   71 1
    78   39   72 1
@<TRIPOS>MOLECULE
CHEMBL597144__1
   74    78     0     0     0
SMALL
USER_CHARGES

@<TRIPOS>ATOM
      1 C1         -3.4769   -5.2203   -1.5560 C.3       1 <0>         0.0194
      2 N1         -2.4358   -4.4493   -0.8633 N.3       1 <0>        -0.5430
      3 C2         -1.1934   -4.4185   -1.6479 C.3       1 <0>         0.0244
      4 C3         -0.1565   -3.5584   -0.9221 C.3       1 <0>        -0.0031
      5 N2          0.0996   -4.1202    0.4106 N.4       1 <0>        -0.3851
      6 C4         -1.1450   -4.1217    1.1907 C.3       1 <0>        -0.0074
      7 C5         -2.1901   -4.9865    0.4825 C.3       1 <0>         0.0267
      8 C6          1.1083   -3.3046    1.1000 C.3       1 <0>         0.0462
      9 C7          1.4612   -3.9487    2.4159 C.ar      1 <0>        -0.1752
     10 C8          0.7480   -3.6254    3.5556 C.ar      1 <0>        -0.0702
     11 C9          1.0693   -4.2136    4.7632 C.ar      1 <0>        -0.1186
     12 C10         2.1096   -5.1309    4.8320 C.ar      1 <0>         0.1985
     13 C11         2.8237   -5.4538    3.6856 C.ar      1 <0>        -0.1402
     14 C12         2.4940   -4.8660    2.4800 C.ar      1 <0>        -0.0675
     15 N3          2.4380   -5.7283    6.0542 N.am      1 <0>        -0.6526
     16 C13         1.4726   -5.9892    6.9578 C.2       1 <0>         0.6536
     17 O1          0.3074   -5.7893    6.6768 O.2       1 <0>        -0.5455
     18 O2          1.7992   -6.4714    8.1718 O.3       1 <0>        -0.3431
     19 C14         0.7251   -6.7250    9.0795 C.3       1 <0>         0.0957
     20 C15         1.2869   -7.2648   10.3963 C.3       1 <0>         0.1319
     21 C16         2.3149   -6.3038   10.9354 C.ar      1 <0>        -0.1377
     22 C17         3.5982   -6.3044   10.4214 C.ar      1 <0>        -0.0784
     23 C18         4.5412   -5.4229   10.9159 C.ar      1 <0>        -0.1230
     24 C19         4.2008   -4.5404   11.9240 C.ar      1 <0>        -0.1011
     25 C20         2.9173   -4.5391   12.4373 C.ar      1 <0>        -0.1150
     26 C21         1.9731   -5.4178   11.9399 C.ar      1 <0>        -0.1056
     27 O3          1.8972   -8.5366   10.1680 O.3       1 <0>        -0.2930
     28 C22         1.9863   -9.3773   11.2306 C.ar      1 <0>         0.2147
     29 C23         1.6075   -8.9419   12.4778 C.ar      1 <0>        -0.2213
     30 C24         1.6842   -9.7718   13.5876 C.ar      1 <0>         0.0062
     31 C25         2.1498  -11.0636   13.4421 C.ar      1 <0>        -0.1243
     32 C26         2.5337  -11.5171   12.1984 C.ar      1 <0>        -0.0398
     33 C27         2.4657  -10.7038   11.0429 C.ar      1 <0>        -0.1597
     34 C28         2.8886  -11.3149    9.8496 C.2       1 <0>         0.0335
     35 C29         3.3192  -12.6037    9.8628 C.2       1 <0>        -0.2902
     36 S1          3.1700  -13.0559   11.5825 S.3       1 <0>         0.1451
     37 C30         3.7983  -13.4216    8.7382 C.cat     1 <0>         0.6511
     38 N4          4.1841  -14.6825    8.9466 N.pl3     1 <0>        -0.7590
     39 N5          3.8475  -12.9030    7.5090 N.pl3     1 <0>        -0.7631
     40 H1         -4.4046   -5.1722   -0.9857 H         1 <0>         0.0846
     41 H2         -3.6388   -4.8016   -2.5492 H         1 <0>         0.0851
     42 H3         -3.1597   -6.2591   -1.6469 H         1 <0>         0.0388
     43 H4         -0.8097   -5.4324   -1.7613 H         1 <0>         0.0594
     44 H5         -1.3946   -3.9933   -2.6312 H         1 <0>         0.1252
     45 H6          0.7705   -3.5458   -1.4954 H         1 <0>         0.1371
     46 H7         -0.5349   -2.5412   -0.8210 H         1 <0>         0.1396
     47 H8         -0.9509   -4.5267    2.1838 H         1 <0>         0.1346
     48 H9         -1.5184   -3.1016    1.2810 H         1 <0>         0.1384
     49 H10        -3.1185   -4.9757    1.0535 H         1 <0>         0.1229
     50 H11        -1.8228   -6.0097    0.4041 H         1 <0>         0.0581
     51 H12         2.0018   -3.2313    0.4801 H         1 <0>         0.1390
     52 H13         0.7079   -2.3069    1.2797 H         1 <0>         0.1384
     53 H14        -0.0610   -2.9119    3.5014 H         1 <0>         0.1386
     54 H15         0.5124   -3.9601    5.6531 H         1 <0>         0.1486
     55 H16         3.6333   -6.1668    3.7359 H         1 <0>         0.1401
     56 H17         3.0463   -5.1197    1.5873 H         1 <0>         0.1387
     57 H18         3.3605   -5.9547    6.2511 H         1 <0>         0.4239
     58 H19         0.1827   -5.7986    9.2686 H         1 <0>         0.1028
     59 H20         0.0480   -7.4603    8.6448 H         1 <0>         0.0895
     60 H21         0.4780   -7.3744   11.1187 H         1 <0>         0.1160
     61 H22         3.8641   -6.9939    9.6338 H         1 <0>         0.1234
     62 H23         5.5440   -5.4239   10.5148 H         1 <0>         0.1252
     63 H24         4.9378   -3.8521   12.3108 H         1 <0>         0.1282
     64 H25         2.6515   -3.8499   13.2251 H         1 <0>         0.1304
     65 H26         0.9693   -5.4142   12.3383 H         1 <0>         0.1264
     66 H27         1.2426   -7.9324   12.5969 H         1 <0>         0.1475
     67 H28         1.3819   -9.4094   14.5590 H         1 <0>         0.1556
     68 H29         2.2133  -11.7164   14.3001 H         1 <0>         0.1505
     69 H30         2.8710  -10.7605    8.9229 H         1 <0>         0.1488
     70 H31         4.5000  -15.2219    8.2050 H         1 <0>         0.4374
     71 H32         3.5672  -11.9868    7.3576 H         1 <0>         0.4429
     72 H33         4.1635  -13.4424    6.7673 H         1 <0>         0.4363
     73 H34         4.1483  -15.0593    9.8398 H         1 <0>         0.4459
     74 H35         0.4388   -5.0659    0.3172 H         1 <0>         0.4183
@<TRIPOS>BOND
     1    1    2 1
     2    1   40 1
     3    1   41 1
     4    1   42 1
     5    2    7 1
     6    2    3 1
     7    3    4 1
     8    3   43 1
     9    3   44 1
    10    4    5 1
    11    4   45 1
    12    4   46 1
    13    5    6 1
    14    5    8 1
    15    5   74 1
    16    6    7 1
    17    6   47 1
    18    6   48 1
    19    7   49 1
    20    7   50 1
    21    8    9 1
    22    8   51 1
    23    8   52 1
    24    9   14 ar
    25    9   10 ar
    26   10   11 ar
    27   10   53 1
    28   11   12 ar
    29   11   54 1
    30   12   13 ar
    31   12   15 1
    32   13   14 ar
    33   13   55 1
    34   14   56 1
    35   15   16 am
    36   15   57 1
    37   16   17 2
    38   16   18 1
    39   18   19 1
    40   19   20 1
    41   19   58 1
    42   19   59 1
    43   20   21 1
    44   20   27 1
    45   20   60 1
    46   21   26 ar
    47   21   22 ar
    48   22   23 ar
    49   22   61 1
    50   23   24 ar
    51   23   62 1
    52   24   25 ar
    53   24   63 1
    54   25   26 ar
    55   25   64 1
    56   26   65 1
    57   27   28 1
    58   28   33 ar
    59   28   29 ar
    60   29   30 ar
    61   29   66 1
    62   30   31 ar
    63   30   67 1
    64   31   32 ar
    65   31   68 1
    66   32   36 1
    67   32   33 ar
    68   33   34 1
    69   34   35 2
    70   34   69 1
    71   35   36 1
    72   35   37 1
    73   37   38 2
    74   37   39 1
    75   38   70 1
    76   38   73 1
    77   39   71 1
    78   39   72 1
@<TRIPOS>MOLECULE
CHEMBL597144__2
   74    78     0     0     0
SMALL
USER_CHARGES

@<TRIPOS>ATOM
      1 C1         -5.2775   -5.6035   -0.6705 C.3       1 <0>        -0.0463
      2 N1         -4.0589   -4.8822   -0.2796 N.4       1 <0>        -0.3883
      3 C2         -2.9433   -5.3065   -1.1357 C.3       1 <0>        -0.0027
      4 C3         -1.6779   -4.5417   -0.7412 C.3       1 <0>         0.0248
      5 N2         -1.3656   -4.8114    0.6694 N.3       1 <0>        -0.5349
      6 C4         -2.4839   -4.4146    1.5367 C.3       1 <0>         0.0195
      7 C5         -3.7426   -5.1805    1.1234 C.3       1 <0>        -0.0024
      8 C6         -0.1232   -4.1386    1.0714 C.3       1 <0>         0.0983
      9 C7          0.2953   -4.6287    2.4337 C.ar      1 <0>        -0.1058
     10 C8         -0.1570   -3.9813    3.5688 C.ar      1 <0>        -0.0955
     11 C9          0.2251   -4.4278    4.8187 C.ar      1 <0>        -0.1197
     12 C10         1.0640   -5.5283    4.9348 C.ar      1 <0>         0.1683
     13 C11         1.5162   -6.1765    3.7929 C.ar      1 <0>        -0.1379
     14 C12         1.1263   -5.7283    2.5461 C.ar      1 <0>        -0.0697
     15 N3          1.4534   -5.9829    6.1998 N.am      1 <0>        -0.6503
     16 C13         0.6082   -5.8754    7.2441 C.2       1 <0>         0.6524
     17 O1         -0.5250   -5.4731    7.0696 O.2       1 <0>        -0.5500
     18 O2          1.0195   -6.2139    8.4807 O.3       1 <0>        -0.3462
     19 C14         0.0711   -6.0750    9.5406 C.3       1 <0>         0.0964
     20 C15         0.7149   -6.5039   10.8606 C.3       1 <0>         0.1319
     21 C16         1.2611   -7.9016   10.7223 C.ar      1 <0>        -0.1345
     22 C17         2.5253   -8.1012   10.2001 C.ar      1 <0>        -0.0797
     23 C18         3.0263   -9.3833   10.0732 C.ar      1 <0>        -0.1217
     24 C19         2.2632  -10.4658   10.4690 C.ar      1 <0>        -0.1027
     25 C20         0.9993  -10.2662   10.9921 C.ar      1 <0>        -0.1153
     26 C21         0.5000   -8.9838   11.1230 C.ar      1 <0>        -0.1068
     27 O3          1.7788   -5.6068   11.1853 O.3       1 <0>        -0.2918
     28 C22         2.1193   -5.5030   12.4956 C.ar      1 <0>         0.2153
     29 C23         1.5263   -6.3274   13.4214 C.ar      1 <0>        -0.2217
     30 C24         1.8485   -6.2510   14.7692 C.ar      1 <0>         0.0058
     31 C25         2.7842   -5.3294   15.1954 C.ar      1 <0>        -0.1250
     32 C26         3.3893   -4.4948   14.2805 C.ar      1 <0>        -0.0396
     33 C27         3.0917   -4.5453   12.8984 C.ar      1 <0>        -0.1597
     34 C28         3.7974   -3.6321   12.0958 C.2       1 <0>         0.0338
     35 C29         4.6963   -2.7847   12.6618 C.2       1 <0>        -0.2896
     36 S1          4.6067   -3.2074   14.3932 S.3       1 <0>         0.1431
     37 C30         5.5310   -1.7646   12.0094 C.cat     1 <0>         0.6508
     38 N4          6.3650   -1.0187   12.7377 N.pl3     1 <0>        -0.7598
     39 N5          5.4548   -1.5845   10.6887 N.pl3     1 <0>        -0.7620
     40 H1         -6.1058   -5.2878   -0.0362 H         1 <0>         0.1245
     41 H2         -5.5124   -5.3823   -1.7117 H         1 <0>         0.1253
     42 H3         -5.1184   -6.6755   -0.5537 H         1 <0>         0.1233
     43 H4         -2.7753   -6.3761   -1.0100 H         1 <0>         0.1378
     44 H5         -3.1847   -5.0966   -2.1777 H         1 <0>         0.1372
     45 H6         -0.8465   -4.8671   -1.3665 H         1 <0>         0.1249
     46 H7         -1.8409   -3.4729   -0.8797 H         1 <0>         0.0617
     47 H8         -2.2404   -4.6473    2.5733 H         1 <0>         0.1258
     48 H9         -2.6602   -3.3437    1.4357 H         1 <0>         0.0608
     49 H10        -4.5766   -4.8771    1.7563 H         1 <0>         0.1355
     50 H11        -3.5705   -6.2507    1.2375 H         1 <0>         0.1373
     51 H12         0.6613   -4.3617    0.3483 H         1 <0>         0.0984
     52 H13        -0.2884   -3.0618    1.1077 H         1 <0>         0.0565
     53 H14        -0.8094   -3.1255    3.4779 H         1 <0>         0.1238
     54 H15        -0.1279   -3.9213    5.7049 H         1 <0>         0.1374
     55 H16         2.1688   -7.0326    3.8799 H         1 <0>         0.1329
     56 H17         1.4743   -6.2344    1.6578 H         1 <0>         0.1327
     57 H18         2.3316   -6.3753    6.3251 H         1 <0>         0.4204
     58 H19        -0.2446   -5.0341    9.6116 H         1 <0>         0.0880
     59 H20        -0.7954   -6.7044    9.3376 H         1 <0>         0.1008
     60 H21        -0.0329   -6.4828   11.6533 H         1 <0>         0.1152
     61 H22         3.1215   -7.2554    9.8908 H         1 <0>         0.1233
     62 H23         4.0137   -9.5392    9.6645 H         1 <0>         0.1253
     63 H24         2.6543  -11.4676   10.3693 H         1 <0>         0.1276
     64 H25         0.4030  -11.1120   11.3011 H         1 <0>         0.1295
     65 H26        -0.4860   -8.8277   11.5351 H         1 <0>         0.1258
     66 H27         0.7938   -7.0500   13.0932 H         1 <0>         0.1475
     67 H28         1.3699   -6.9080   15.4803 H         1 <0>         0.1550
     68 H29         3.0410   -5.2625   16.2423 H         1 <0>         0.1500
     69 H30         3.6254   -3.6043   11.0299 H         1 <0>         0.1496
     70 H31         6.4203   -1.1495   13.6973 H         1 <0>         0.4455
     71 H32         4.8489   -2.1264   10.1595 H         1 <0>         0.4435
     72 H33         6.0054   -0.9117   10.2584 H         1 <0>         0.4366
     73 H34         6.9155   -0.3459   12.3074 H         1 <0>         0.4373
     74 H35        -4.2065   -3.8899   -0.3873 H         1 <0>         0.4224
@<TRIPOS>BOND
     1    1    2 1
     2    1   40 1
     3    1   41 1
     4    1   42 1
     5    2    7 1
     6    2    3 1
     7    2   74 1
     8    3    4 1
     9    3   43 1
    10    3   44 1
    11    4    5 1
    12    4   45 1
    13    4   46 1
    14    5    6 1
    15    5    8 1
    16    6    7 1
    17    6   47 1
    18    6   48 1
    19    7   49 1
    20    7   50 1
    21    8    9 1
    22    8   51 1
    23    8   52 1
    24    9   14 ar
    25    9   10 ar
    26   10   11 ar
    27   10   53 1
    28   11   12 ar
    29   11   54 1
    30   12   13 ar
    31   12   15 1
    32   13   14 ar
    33   13   55 1
    34   14   56 1
    35   15   16 am
    36   15   57 1
    37   16   17 2
    38   16   18 1
    39   18   19 1
    40   19   20 1
    41   19   58 1
    42   19   59 1
    43   20   21 1
    44   20   27 1
    45   20   60 1
    46   21   26 ar
    47   21   22 ar
    48   22   23 ar
    49   22   61 1
    50   23   24 ar
    51   23   62 1
    52   24   25 ar
    53   24   63 1
    54   25   26 ar
    55   25   64 1
    56   26   65 1
    57   27   28 1
    58   28   33 ar
    59   28   29 ar
    60   29   30 ar
    61   29   66 1
    62   30   31 ar
    63   30   67 1
    64   31   32 ar
    65   31   68 1
    66   32   36 1
    67   32   33 ar
    68   33   34 1
    69   34   35 2
    70   34   69 1
    71   35   36 1
    72   35   37 1
    73   37   38 2
    74   37   39 1
    75   38   70 1
    76   38   73 1
    77   39   71 1
    78   39   72 1
@<TRIPOS>MOLECULE
CHEMBL597144__3
   74    78     0     0     0
SMALL
USER_CHARGES

@<TRIPOS>ATOM
      1 C1         -5.2682   -5.5060   -0.7980 C.3       1 <0>         0.0190
      2 N1         -4.0165   -4.8615   -0.3785 N.3       1 <0>        -0.5431
      3 C2         -2.9390   -5.1260   -1.3424 C.3       1 <0>         0.0237
      4 C3         -1.6720   -4.3901   -0.9011 C.3       1 <0>        -0.0025
      5 N2         -1.2790   -4.8506    0.4372 N.4       1 <0>        -0.3857
      6 C4         -2.3549   -4.5574    1.3932 C.3       1 <0>        -0.0066
      7 C5         -3.6276   -5.2947    0.9711 C.3       1 <0>         0.0257
      8 C6         -0.0525   -4.1571    0.8528 C.3       1 <0>         0.0469
      9 C7          0.4191   -4.7166    2.1702 C.ar      1 <0>        -0.1758
     10 C8         -0.0275   -4.1612    3.3552 C.ar      1 <0>        -0.0715
     11 C9          0.4032   -4.6714    4.5642 C.ar      1 <0>        -0.1206
     12 C10         1.2853   -5.7436    4.5890 C.ar      1 <0>         0.1985
     13 C11         1.7316   -6.2994    3.3972 C.ar      1 <0>        -0.1390
     14 C12         1.2931   -5.7879    2.1915 C.ar      1 <0>        -0.0663
     15 N3          1.7240   -6.2626    5.8124 N.am      1 <0>        -0.6528
     16 C13         0.9026   -6.2551    6.8810 C.2       1 <0>         0.6538
     17 O1         -0.2489   -5.8868    6.7595 O.2       1 <0>        -0.5454
     18 O2          1.3582   -6.6557    8.0831 O.3       1 <0>        -0.3428
     19 C14         0.4330   -6.6218    9.1716 C.3       1 <0>         0.0957
     20 C15         1.1263   -7.1088   10.4456 C.3       1 <0>         0.1318
     21 C16         1.7205   -8.4726   10.2042 C.ar      1 <0>        -0.1356
     22 C17         2.9773   -8.5890    9.6406 C.ar      1 <0>        -0.0806
     23 C18         3.5224   -9.8399    9.4192 C.ar      1 <0>        -0.1221
     24 C19         2.8107  -10.9744    9.7617 C.ar      1 <0>        -0.1022
     25 C20         1.5542  -10.8580   10.3262 C.ar      1 <0>        -0.1147
     26 C21         1.0110   -9.6070   10.5515 C.ar      1 <0>        -0.1064
     27 O3          2.1640   -6.1936   10.8028 O.3       1 <0>        -0.2928
     28 C22         2.5343   -6.1606   12.1087 C.ar      1 <0>         0.2141
     29 C23         1.9966   -7.0650   12.9927 C.ar      1 <0>        -0.2209
     30 C24         2.3505   -7.0624   14.3348 C.ar      1 <0>         0.0058
     31 C25         3.2619   -6.1342   14.7978 C.ar      1 <0>        -0.1240
     32 C26         3.8115   -5.2199   13.9250 C.ar      1 <0>        -0.0400
     33 C27         3.4804   -5.1936   12.5499 C.ar      1 <0>        -0.1591
     34 C28         4.1304   -4.2042   11.7919 C.2       1 <0>         0.0330
     35 C29         5.0115   -3.3603   12.3904 C.2       1 <0>        -0.2894
     36 S1          4.9826   -3.8960   14.0924 S.3       1 <0>         0.1452
     37 C30         5.7904   -2.2689   11.7862 C.cat     1 <0>         0.6509
     38 N4          6.6145   -1.5392   12.5416 N.pl3     1 <0>        -0.7591
     39 N5          5.6734   -2.0078   10.4821 N.pl3     1 <0>        -0.7626
     40 H1         -6.0644   -5.2405   -0.1026 H         1 <0>         0.0845
     41 H2         -5.5329   -5.1679   -1.7998 H         1 <0>         0.0849
     42 H3         -5.1358   -6.5879   -0.8028 H         1 <0>         0.0397
     43 H4         -2.7420   -6.1973   -1.3827 H         1 <0>         0.0603
     44 H5         -3.2393   -4.7737   -2.3292 H         1 <0>         0.1251
     45 H6         -0.8675   -4.5964   -1.6071 H         1 <0>         0.1369
     46 H7         -1.8654   -3.3177   -0.8741 H         1 <0>         0.1388
     47 H8         -2.0567   -4.8878    2.3882 H         1 <0>         0.1344
     48 H9         -2.5448   -3.4842    1.4085 H         1 <0>         0.1375
     49 H10        -4.4302   -5.0654    1.6721 H         1 <0>         0.1230
     50 H11        -3.4420   -6.3688    0.9689 H         1 <0>         0.0594
     51 H12         0.7207   -4.3028    0.0985 H         1 <0>         0.1387
     52 H13        -0.2568   -3.0920    0.9626 H         1 <0>         0.1374
     53 H14        -0.7136   -3.3273    3.3353 H         1 <0>         0.1376
     54 H15         0.0545   -4.2367    5.4894 H         1 <0>         0.1473
     55 H16         2.4177   -7.1333    3.4132 H         1 <0>         0.1419
     56 H17         1.6367   -6.2224    1.2643 H         1 <0>         0.1395
     57 H18         2.6192   -6.6278    5.8913 H         1 <0>         0.4243
     58 H19         0.0807   -5.6007    9.3174 H         1 <0>         0.0898
     59 H20        -0.4144   -7.2702    8.9486 H         1 <0>         0.1025
     60 H21         0.3990   -7.1675   11.2553 H         1 <0>         0.1164
     61 H22         3.5334   -7.7027    9.3730 H         1 <0>         0.1229
     62 H23         4.5040   -9.9309    8.9782 H         1 <0>         0.1252
     63 H24         3.2362  -11.9518    9.5881 H         1 <0>         0.1280
     64 H25         0.9980  -11.7443   10.5935 H         1 <0>         0.1302
     65 H26         0.0308   -9.5159   10.9959 H         1 <0>         0.1264
     66 H27         1.2833   -7.7930   12.6356 H         1 <0>         0.1474
     67 H28         1.9153   -7.7816   15.0128 H         1 <0>         0.1554
     68 H29         3.5430   -6.1244   15.8405 H         1 <0>         0.1504
     69 H30         3.9301   -4.1150   10.7344 H         1 <0>         0.1490
     70 H31         7.1282   -0.8194   12.1431 H         1 <0>         0.4375
     71 H32         5.0746   -2.5380    9.9332 H         1 <0>         0.4430
     72 H33         6.1871   -1.2880   10.0836 H         1 <0>         0.4366
     73 H34         6.6996   -1.7289   13.4891 H         1 <0>         0.4458
     74 H35        -1.1113   -5.8453    0.4146 H         1 <0>         0.4197
@<TRIPOS>BOND
     1    1    2 1
     2    1   40 1
     3    1   41 1
     4    1   42 1
     5    2    7 1
     6    2    3 1
     7    3    4 1
     8    3   43 1
     9    3   44 1
    10    4    5 1
    11    4   45 1
    12    4   46 1
    13    5    6 1
    14    5    8 1
    15    5   74 1
    16    6    7 1
    17    6   47 1
    18    6   48 1
    19    7   49 1
    20    7   50 1
    21    8    9 1
    22    8   51 1
    23    8   52 1
    24    9   14 ar
    25    9   10 ar
    26   10   11 ar
    27   10   53 1
    28   11   12 ar
    29   11   54 1
    30   12   13 ar
    31   12   15 1
    32   13   14 ar
    33   13   55 1
    34   14   56 1
    35   15   16 am
    36   15   57 1
    37   16   17 2
    38   16   18 1
    39   18   19 1
    40   19   20 1
    41   19   58 1
    42   19   59 1
    43   20   21 1
    44   20   27 1
    45   20   60 1
    46   21   26 ar
    47   21   22 ar
    48   22   23 ar
    49   22   61 1
    50   23   24 ar
    51   23   62 1
    52   24   25 ar
    53   24   63 1
    54   25   26 ar
    55   25   64 1
    56   26   65 1
    57   27   28 1
    58   28   33 ar
    59   28   29 ar
    60   29   30 ar
    61   29   66 1
    62   30   31 ar
    63   30   67 1
    64   31   32 ar
    65   31   68 1
    66   32   36 1
    67   32   33 ar
    68   33   34 1
    69   34   35 2
    70   34   69 1
    71   35   36 1
    72   35   37 1
    73   37   38 2
    74   37   39 1
    75   38   70 1
    76   38   73 1
    77   39   71 1
    78   39   72 1
@<TRIPOS>MOLECULE
CHEMBL111338
   61    65     0     0     0
SMALL
USER_CHARGES

@<TRIPOS>ATOM
      1 C1         -0.3891    1.1150    2.6290 C.ar      1 <0>        -0.0679
      2 C2          0.7278    1.8856    2.6840 C.ar      1 <0>        -0.0944
      3 C3          1.9113    1.4850    2.0412 C.ar      1 <0>        -0.1375
      4 C4          1.9614    0.2935    1.3381 C.ar      1 <0>        -0.0260
      5 C5          0.8185   -0.5172    1.2697 C.ar      1 <0>        -0.0447
      6 C6         -0.3708   -0.1019    1.9223 C.ar      1 <0>        -0.0268
      7 C7         -1.5143   -0.9123    1.8532 C.ar      1 <0>        -0.0331
      8 C8         -1.4642   -2.1039    1.1495 C.ar      1 <0>        -0.1099
      9 C9         -0.2793   -2.5049    0.5072 C.ar      1 <0>        -0.0860
     10 C10         0.8368   -1.7343    0.5623 C.ar      1 <0>        -0.0905
     11 C11        -2.6658   -2.9615    1.0733 C.2       1 <0>         0.5603
     12 O1         -3.6926   -2.6197    1.6271 O.2       1 <0>        -0.4995
     13 N1         -2.6230   -4.1223    0.3899 N.am      1 <0>        -0.6695
     14 C12        -3.7276   -4.9798    0.3983 C.ar      1 <0>         0.1590
     15 C13        -5.0150   -4.4584    0.4177 C.ar      1 <0>        -0.0955
     16 C14        -6.0989   -5.3112    0.4271 C.ar      1 <0>        -0.0815
     17 C15        -5.9109   -6.6853    0.4166 C.ar      1 <0>        -0.1003
     18 C16        -4.6343   -7.2072    0.3947 C.ar      1 <0>        -0.1014
     19 C17        -3.5421   -6.3541    0.3817 C.ar      1 <0>        -0.1179
     20 C18        -4.3861   -8.6925    0.3737 C.3       1 <0>         0.0879
     21 N2         -5.5772   -9.4210    0.8194 N.4       1 <0>        -0.5066
     22 C19        -6.7295   -8.9954    0.0104 C.3       1 <0>        -0.0043
     23 C20        -7.1247   -7.5795    0.4318 C.3       1 <0>        -0.1072
     24 C21        -3.2163   -9.0216    1.3032 C.3       1 <0>        -0.1136
     25 C22        -2.9241  -10.5360    1.2691 C.3       1 <0>        -0.1310
     26 C23        -2.5400  -10.8817    2.7292 C.3       1 <0>        -0.1282
     27 C24        -3.5046   -9.9952    3.5555 C.3       1 <0>        -0.1356
     28 C25        -3.5854   -8.6778    2.7570 C.3       1 <0>        -0.1324
     29 C26         3.1140    2.3440    2.1161 C.cat     1 <0>         0.5991
     30 N3          2.9832    3.6644    2.2262 N.pl3     1 <0>        -0.7535
     31 N4          4.3269    1.7965    2.0734 N.pl3     1 <0>        -0.7579
     32 H1         -1.2903    1.4340    3.1315 H         1 <0>         0.1547
     33 H2          0.7059    2.8182    3.2283 H         1 <0>         0.1434
     34 H3          2.8736   -0.0095    0.8456 H         1 <0>         0.1490
     35 H4         -2.4266   -0.6091    2.3454 H         1 <0>         0.1573
     36 H5         -0.2570   -3.4376   -0.0369 H         1 <0>         0.1365
     37 H6          1.7393   -2.0549    0.0631 H         1 <0>         0.1477
     38 H7         -1.8260   -4.3630   -0.1079 H         1 <0>         0.4153
     39 H8         -5.1667   -3.3891    0.4257 H         1 <0>         0.1507
     40 H9         -7.1001   -4.9066    0.4430 H         1 <0>         0.1414
     41 H10        -2.5421   -6.7614    0.3626 H         1 <0>         0.1379
     42 H11        -4.1354   -9.0006   -0.6414 H         1 <0>         0.1499
     43 H12        -5.4302  -10.4123    0.7023 H         1 <0>         0.4320
     44 H13        -6.4575   -9.0006   -1.0451 H         1 <0>         0.1363
     45 H14        -7.5656   -9.6741    0.1788 H         1 <0>         0.1430
     46 H15        -7.5439   -7.6045    1.4377 H         1 <0>         0.1048
     47 H16        -7.8705   -7.1900   -0.2611 H         1 <0>         0.1263
     48 H17        -2.3307   -8.4628    1.0007 H         1 <0>         0.1190
     49 H18        -3.8134  -11.0894    0.9674 H         1 <0>         0.0587
     50 H19        -2.0941  -10.7493    0.5956 H         1 <0>         0.0907
     51 H20        -2.7142  -11.9379    2.9348 H         1 <0>         0.0814
     52 H21        -1.5024  -10.6142    2.9294 H         1 <0>         0.0804
     53 H22        -4.4876  -10.4613    3.6230 H         1 <0>         0.0665
     54 H23        -3.0982   -9.8139    4.5505 H         1 <0>         0.0825
     55 H24        -2.8784   -7.9528    3.1602 H         1 <0>         0.0879
     56 H25        -4.5979   -8.2765    2.8002 H         1 <0>         0.0614
     57 H26         2.0995    4.0633    2.2574 H         1 <0>         0.4478
     58 H27         4.4222    0.8345    1.9932 H         1 <0>         0.4456
     59 H28         5.1152    2.3596    2.1224 H         1 <0>         0.4357
     60 H29         3.7715    4.2275    2.2753 H         1 <0>         0.4356
     61 H30        -5.7536   -9.2170    1.7917 H         1 <0>         0.4269
@<TRIPOS>BOND
     1    1    6 ar
     2    1    2 ar
     3    1   32 1
     4    2    3 ar
     5    2   33 1
     6    3    4 ar
     7    3   29 1
     8    4    5 ar
     9    4   34 1
    10    5   10 ar
    11    5    6 ar
    12    6    7 ar
    13    7    8 ar
    14    7   35 1
    15    8    9 ar
    16    8   11 1
    17    9   10 ar
    18    9   36 1
    19   10   37 1
    20   11   12 2
    21   11   13 am
    22   13   14 1
    23   13   38 1
    24   14   19 ar
    25   14   15 ar
    26   15   16 ar
    27   15   39 1
    28   16   17 ar
    29   16   40 1
    30   17   23 1
    31   17   18 ar
    32   18   19 ar
    33   18   20 1
    34   19   41 1
    35   20   21 1
    36   20   24 1
    37   20   42 1
    38   21   22 1
    39   21   43 1
    40   21   61 1
    41   22   23 1
    42   22   44 1
    43   22   45 1
    44   23   46 1
    45   23   47 1
    46   24   28 1
    47   24   25 1
    48   24   48 1
    49   25   26 1
    50   25   49 1
    51   25   50 1
    52   26   27 1
    53   26   51 1
    54   26   52 1
    55   27   28 1
    56   27   53 1
    57   27   54 1
    58   28   55 1
    59   28   56 1
    60   29   30 2
    61   29   31 1
    62   30   57 1
    63   30   60 1
    64   31   58 1
    65   31   59 1
@<TRIPOS>MOLECULE
CHEMBL111338__1
   60    64     0     0     0
SMALL
USER_CHARGES

@<TRIPOS>ATOM
      1 C1         -0.2436    1.1008    2.4169 C.ar      1 <0>        -0.0675
      2 C2          0.8840    1.8567    2.4515 C.ar      1 <0>        -0.0983
      3 C3          2.0587    1.4272    1.8112 C.ar      1 <0>        -0.1455
      4 C4          2.0889    0.2215    1.1315 C.ar      1 <0>        -0.0225
      5 C5          0.9346   -0.5744    1.0844 C.ar      1 <0>        -0.0487
      6 C6         -0.2456   -0.1299    1.7343 C.ar      1 <0>        -0.0243
      7 C7         -1.4005   -0.9255    1.6865 C.ar      1 <0>        -0.0413
      8 C8         -1.3703   -2.1313    1.0062 C.ar      1 <0>        -0.0971
      9 C9         -0.1942   -2.5613    0.3664 C.ar      1 <0>        -0.0824
     10 C10         0.9327   -1.8053    0.4011 C.ar      1 <0>        -0.0940
     11 C11        -2.5840   -2.9735    0.9526 C.2       1 <0>         0.5520
     12 O1         -3.6032   -2.6067    1.5043 O.2       1 <0>        -0.5032
     13 N1         -2.5606   -4.1480    0.2920 N.am      1 <0>        -0.6618
     14 C12        -3.6767   -4.9899    0.3227 C.ar      1 <0>         0.1301
     15 C13        -4.9569   -4.4507    0.3383 C.ar      1 <0>        -0.1146
     16 C14        -6.0518   -5.2884    0.3703 C.ar      1 <0>        -0.1028
     17 C15        -5.8834   -6.6655    0.3855 C.ar      1 <0>        -0.0717
     18 C16        -4.6142   -7.2045    0.3664 C.ar      1 <0>        -0.0497
     19 C17        -3.5106   -6.3665    0.3319 C.ar      1 <0>        -0.1338
     20 C18        -4.3828   -8.6929    0.3698 C.3       1 <0>         0.1329
     21 N2         -5.5897   -9.3995    0.8103 N.3       1 <0>        -0.6746
     22 C19        -6.7515   -8.9665    0.0178 C.3       1 <0>         0.0534
     23 C20        -7.1121   -7.5379    0.4259 C.3       1 <0>        -0.0785
     24 C21        -3.2297   -9.0224    1.3199 C.3       1 <0>        -0.0815
     25 C22        -2.9318  -10.5357    1.2846 C.3       1 <0>        -0.1211
     26 C23        -2.5742  -10.8867    2.7501 C.3       1 <0>        -0.1243
     27 C24        -3.5573  -10.0072    3.5619 C.3       1 <0>        -0.1214
     28 C25        -3.6274   -8.6865    2.7679 C.3       1 <0>        -0.1073
     29 C26         3.2735    2.2708    1.8635 C.cat     1 <0>         0.6012
     30 N3          3.1614    3.5948    1.9482 N.pl3     1 <0>        -0.7561
     31 N4          4.4785    1.7057    1.8259 N.pl3     1 <0>        -0.7597
     32 H1         -1.1379    1.4420    2.9172 H         1 <0>         0.1534
     33 H2          0.8777    2.8001    2.9773 H         1 <0>         0.1406
     34 H3          2.9944   -0.1038    0.6408 H         1 <0>         0.1470
     35 H4         -2.3061   -0.6001    2.1769 H         1 <0>         0.1572
     36 H5         -0.1875   -3.5047   -0.1593 H         1 <0>         0.1390
     37 H6          1.8281   -2.1482   -0.0959 H         1 <0>         0.1463
     38 H7         -1.7695   -4.4094   -0.2048 H         1 <0>         0.4092
     39 H8         -5.0941   -3.3796    0.3259 H         1 <0>         0.1374
     40 H9         -7.0472   -4.8696    0.3840 H         1 <0>         0.1276
     41 H10        -2.5163   -6.7879    0.3162 H         1 <0>         0.1259
     42 H11        -4.1226   -9.0188   -0.6373 H         1 <0>         0.0508
     43 H12        -5.4649  -10.3990    0.7526 H         1 <0>         0.3481
     44 H13        -6.5015   -8.9923   -1.0428 H         1 <0>         0.0366
     45 H14        -7.5956   -9.6276    0.2141 H         1 <0>         0.0827
     46 H15        -7.5198   -7.5422    1.4368 H         1 <0>         0.0855
     47 H16        -7.8593   -7.1426   -0.2623 H         1 <0>         0.0785
     48 H17        -2.3404   -8.4594    1.0368 H         1 <0>         0.0729
     49 H18        -3.8133  -11.0906    0.9635 H         1 <0>         0.0659
     50 H19        -2.0884  -10.7431    0.6259 H         1 <0>         0.0627
     51 H20        -2.7488  -11.9444    2.9476 H         1 <0>         0.0654
     52 H21        -1.5416  -10.6167    2.9711 H         1 <0>         0.0633
     53 H22        -4.5399  -10.4769    3.6087 H         1 <0>         0.0686
     54 H23        -3.1705   -9.8291    4.5653 H         1 <0>         0.0587
     55 H24        -2.9307   -7.9610    3.1878 H         1 <0>         0.0500
     56 H25        -4.6419   -8.2887    2.7937 H         1 <0>         0.0795
     57 H26         2.2835    4.0064    1.9756 H         1 <0>         0.4474
     58 H27         4.5601    0.7411    1.7642 H         1 <0>         0.4458
     59 H28         5.2747    2.2587    1.8602 H         1 <0>         0.4339
     60 H29         3.9577    4.1477    1.9824 H         1 <0>         0.4337
@<TRIPOS>BOND
     1    1    6 ar
     2    1    2 ar
     3    1   32 1
     4    2    3 ar
     5    2   33 1
     6    3    4 ar
     7    3   29 1
     8    4    5 ar
     9    4   34 1
    10    5   10 ar
    11    5    6 ar
    12    6    7 ar
    13    7    8 ar
    14    7   35 1
    15    8    9 ar
    16    8   11 1
    17    9   10 ar
    18    9   36 1
    19   10   37 1
    20   11   12 2
    21   11   13 am
    22   13   14 1
    23   13   38 1
    24   14   19 ar
    25   14   15 ar
    26   15   16 ar
    27   15   39 1
    28   16   17 ar
    29   16   40 1
    30   17   23 1
    31   17   18 ar
    32   18   19 ar
    33   18   20 1
    34   19   41 1
    35   20   21 1
    36   20   24 1
    37   20   42 1
    38   21   22 1
    39   21   43 1
    40   22   23 1
    41   22   44 1
    42   22   45 1
    43   23   46 1
    44   23   47 1
    45   24   28 1
    46   24   25 1
    47   24   48 1
    48   25   26 1
    49   25   49 1
    50   25   50 1
    51   26   27 1
    52   26   51 1
    53   26   52 1
    54   27   28 1
    55   27   53 1
    56   27   54 1
    57   28   55 1
    58   28   56 1
    59   29   30 2
    60   29   31 1
    61   30   57 1
    62   30   60 1
    63   31   58 1
    64   31   59 1
@<TRIPOS>MOLECULE
CHEMBL111338__2
   61    65     0     0     0
SMALL
USER_CHARGES

@<TRIPOS>ATOM
      1 C1          0.5419    0.7698    2.2245 C.ar      1 <0>        -0.0678
      2 C2          1.7272    1.4324    2.2430 C.ar      1 <0>        -0.0944
      3 C3          2.8610    0.8976    1.6083 C.ar      1 <0>        -0.1375
      4 C4          2.7911   -0.3186    0.9507 C.ar      1 <0>        -0.0261
      5 C5          1.5759   -1.0191    0.9205 C.ar      1 <0>        -0.0447
      6 C6          0.4379   -0.4688    1.5645 C.ar      1 <0>        -0.0267
      7 C7         -0.7779   -1.1689    1.5336 C.ar      1 <0>        -0.0329
      8 C8         -0.8478   -2.3853    0.8754 C.ar      1 <0>        -0.1099
      9 C9          0.2874   -2.9206    0.2411 C.ar      1 <0>        -0.0859
     10 C10         1.4719   -2.2580    0.2597 C.ar      1 <0>        -0.0906
     11 C11        -2.1259   -3.1271    0.8396 C.2       1 <0>         0.5602
     12 O1         -3.1101   -2.6690    1.3867 O.2       1 <0>        -0.4991
     13 N1         -2.2000   -4.3114    0.2006 N.am      1 <0>        -0.6697
     14 C12        -3.3803   -5.0597    0.2496 C.ar      1 <0>         0.1588
     15 C13        -4.6126   -4.4185    0.2570 C.ar      1 <0>        -0.0954
     16 C14        -5.7719   -5.1642    0.3034 C.ar      1 <0>        -0.0816
     17 C15        -5.7144   -6.5493    0.3442 C.ar      1 <0>        -0.0997
     18 C16        -4.4927   -7.1899    0.3397 C.ar      1 <0>        -0.1005
     19 C17        -3.3253   -6.4450    0.2852 C.ar      1 <0>        -0.1183
     20 C18        -4.3854   -8.6912    0.3925 C.3       1 <0>         0.0878
     21 N2         -5.6544   -9.3131    0.0038 N.4       1 <0>        -0.5065
     22 C19        -6.7334   -8.7608    0.8370 C.3       1 <0>        -0.0043
     23 C20        -7.0070   -7.3240    0.3909 C.3       1 <0>        -0.1071
     24 C21        -3.2840   -9.1521   -0.5643 C.3       1 <0>        -0.1139
     25 C22        -3.6292   -8.7336   -2.0084 C.3       1 <0>        -0.1244
     26 C23        -3.1343   -9.9177   -2.8756 C.3       1 <0>        -0.1293
     27 C24        -3.4850  -11.1494   -2.0044 C.3       1 <0>        -0.1352
     28 C25        -3.1923  -10.6881   -0.5617 C.3       1 <0>        -0.1364
     29 C26         4.1403    1.6407    1.6427 C.cat     1 <0>         0.5991
     30 N3          4.1361    2.9708    1.7034 N.pl3     1 <0>        -0.7535
     31 N4          5.2954    0.9793    1.6130 N.pl3     1 <0>        -0.7578
     32 H1         -0.3200    1.1914    2.7203 H         1 <0>         0.1548
     33 H2          1.7992    2.3825    2.7516 H         1 <0>         0.1435
     34 H3          3.6655   -0.7250    0.4642 H         1 <0>         0.1489
     35 H4         -1.6523   -0.7624    2.0198 H         1 <0>         0.1574
     36 H5          0.2159   -3.8708   -0.2672 H         1 <0>         0.1363
     37 H6          2.3349   -2.6811   -0.2327 H         1 <0>         0.1476
     38 H7         -1.4346   -4.6447   -0.2934 H         1 <0>         0.4150
     39 H8         -4.6627   -3.3401    0.2269 H         1 <0>         0.1507
     40 H9         -6.7303   -4.6665    0.3083 H         1 <0>         0.1413
     41 H10        -2.3683   -6.9455    0.2744 H         1 <0>         0.1378
     42 H11        -4.1308   -8.9978    1.4070 H         1 <0>         0.1490
     43 H12        -5.8434   -9.1162   -0.9676 H         1 <0>         0.4264
     44 H13        -7.6351   -9.3605    0.7129 H         1 <0>         0.1431
     45 H14        -6.4276   -8.7670    1.8832 H         1 <0>         0.1357
     46 H15        -7.6888   -6.8491    1.0964 H         1 <0>         0.1259
     47 H16        -7.4605   -7.3323   -0.6003 H         1 <0>         0.1052
     48 H17        -2.3279   -8.7204   -0.2681 H         1 <0>         0.1192
     49 H18        -4.7055   -8.6023   -2.1206 H         1 <0>         0.0572
     50 H19        -3.1022   -7.8179   -2.2766 H         1 <0>         0.0864
     51 H20        -3.6689   -9.9512   -3.8249 H         1 <0>         0.0801
     52 H21        -2.0585   -9.8537   -3.0389 H         1 <0>         0.0802
     53 H22        -4.5379  -11.4082   -2.1159 H         1 <0>         0.0670
     54 H23        -2.8527  -11.9968   -2.2696 H         1 <0>         0.0839
     55 H24        -2.1915  -11.0019   -0.2652 H         1 <0>         0.0925
     56 H25        -3.9325  -11.1052    0.1211 H         1 <0>         0.0617
     57 H26         3.2945    3.4526    1.7250 H         1 <0>         0.4478
     58 H27         5.2985    0.0103    1.5687 H         1 <0>         0.4456
     59 H28         6.1339    1.4664    1.6355 H         1 <0>         0.4357
     60 H29         4.9746    3.4579    1.7259 H         1 <0>         0.4356
     61 H30        -5.5978  -10.3109    0.1426 H         1 <0>         0.4319
@<TRIPOS>BOND
     1    1    6 ar
     2    1    2 ar
     3    1   32 1
     4    2    3 ar
     5    2   33 1
     6    3    4 ar
     7    3   29 1
     8    4    5 ar
     9    4   34 1
    10    5   10 ar
    11    5    6 ar
    12    6    7 ar
    13    7    8 ar
    14    7   35 1
    15    8    9 ar
    16    8   11 1
    17    9   10 ar
    18    9   36 1
    19   10   37 1
    20   11   12 2
    21   11   13 am
    22   13   14 1
    23   13   38 1
    24   14   19 ar
    25   14   15 ar
    26   15   16 ar
    27   15   39 1
    28   16   17 ar
    29   16   40 1
    30   17   23 1
    31   17   18 ar
    32   18   19 ar
    33   18   20 1
    34   19   41 1
    35   20   21 1
    36   20   24 1
    37   20   42 1
    38   21   22 1
    39   21   43 1
    40   21   61 1
    41   22   23 1
    42   22   44 1
    43   22   45 1
    44   23   46 1
    45   23   47 1
    46   24   28 1
    47   24   25 1
    48   24   48 1
    49   25   26 1
    50   25   49 1
    51   25   50 1
    52   26   27 1
    53   26   51 1
    54   26   52 1
    55   27   28 1
    56   27   53 1
    57   27   54 1
    58   28   55 1
    59   28   56 1
    60   29   30 2
    61   29   31 1
    62   30   57 1
    63   30   60 1
    64   31   58 1
    65   31   59 1
@<TRIPOS>MOLECULE
CHEMBL111338__3
   60    64     0     0     0
SMALL
USER_CHARGES

@<TRIPOS>ATOM
      1 C1          0.4684    0.8311    2.1002 C.ar      1 <0>        -0.0675
      2 C2          1.6481    1.5039    2.1063 C.ar      1 <0>        -0.0981
      3 C3          2.7837    0.9718    1.4726 C.ar      1 <0>        -0.1451
      4 C4          2.7215   -0.2521    0.8287 C.ar      1 <0>        -0.0226
      5 C5          1.5122   -0.9632    0.8113 C.ar      1 <0>        -0.0484
      6 C6          0.3723   -0.4155    1.4542 C.ar      1 <0>        -0.0244
      7 C7         -0.8376   -1.1263    1.4361 C.ar      1 <0>        -0.0410
      8 C8         -0.8999   -2.3504    0.7916 C.ar      1 <0>        -0.0978
      9 C9          0.2372   -2.8830    0.1584 C.ar      1 <0>        -0.0825
     10 C10         1.4161   -2.2101    0.1647 C.ar      1 <0>        -0.0937
     11 C11        -2.1717   -3.1034    0.7694 C.2       1 <0>         0.5523
     12 O1         -3.1575   -2.6477    1.3156 O.2       1 <0>        -0.5039
     13 N1         -2.2383   -4.2952    0.1437 N.am      1 <0>        -0.6623
     14 C12        -3.4120   -5.0530    0.2059 C.ar      1 <0>         0.1317
     15 C13        -4.6499   -4.4225    0.2118 C.ar      1 <0>        -0.1151
     16 C14        -5.8021   -5.1777    0.2707 C.ar      1 <0>        -0.0996
     17 C15        -5.7333   -6.5624    0.3256 C.ar      1 <0>        -0.0839
     18 C16        -4.5061   -7.1917    0.3236 C.ar      1 <0>        -0.0876
     19 C17        -3.3453   -6.4371    0.2562 C.ar      1 <0>        -0.1303
     20 C18        -4.3819   -8.6913    0.3936 C.3       1 <0>         0.1316
     21 N2         -5.6545   -9.3291    0.0422 N.3       1 <0>        -0.6690
     22 C19        -6.7462   -8.7707    0.8557 C.3       1 <0>         0.0535
     23 C20        -7.0217   -7.3428    0.3834 C.3       1 <0>        -0.1212
     24 C21        -3.2986   -9.1543   -0.5827 C.3       1 <0>        -0.0842
     25 C22        -3.6719   -8.7409   -2.0212 C.3       1 <0>        -0.1166
     26 C23        -3.1926   -9.9273   -2.8939 C.3       1 <0>        -0.1264
     27 C24        -3.5253  -11.1565   -2.0121 C.3       1 <0>        -0.1224
     28 C25        -3.2053  -10.6902   -0.5769 C.3       1 <0>        -0.1161
     29 C26         4.0567    1.7262    1.4934 C.cat     1 <0>         0.6012
     30 N3          4.0414    3.0567    1.5396 N.pl3     1 <0>        -0.7560
     31 N4          5.2174    1.0743    1.4660 N.pl3     1 <0>        -0.7596
     32 H1         -0.3950    1.2507    2.5950 H         1 <0>         0.1534
     33 H2          1.7141    2.4600    2.6041 H         1 <0>         0.1408
     34 H3          3.5973   -0.6564    0.3429 H         1 <0>         0.1472
     35 H4         -1.7135   -0.7219    1.9216 H         1 <0>         0.1570
     36 H5          0.1717   -3.8393   -0.3392 H         1 <0>         0.1389
     37 H6          2.2806   -2.6313   -0.3268 H         1 <0>         0.1466
     38 H7         -1.4722   -4.6274   -0.3499 H         1 <0>         0.4097
     39 H8         -4.7095   -3.3450    0.1707 H         1 <0>         0.1376
     40 H9         -6.7647   -4.6880    0.2745 H         1 <0>         0.1268
     41 H10        -2.3841   -6.9295    0.2470 H         1 <0>         0.1269
     42 H11        -4.1012   -8.9821    1.4058 H         1 <0>         0.0941
     43 H12        -5.8496   -9.2285   -0.9427 H         1 <0>         0.3443
     44 H13        -7.6432   -9.3772    0.7307 H         1 <0>         0.0859
     45 H14        -6.4518   -8.7592    1.9052 H         1 <0>         0.0768
     46 H15        -7.7076   -6.8579    1.0780 H         1 <0>         0.0825
     47 H16        -7.4729   -7.3704   -0.6084 H         1 <0>         0.0787
     48 H17        -2.3374   -8.7208   -0.3064 H         1 <0>         0.0747
     49 H18        -4.7503   -8.6109   -2.1131 H         1 <0>         0.0636
     50 H19        -3.1511   -7.8256   -2.3025 H         1 <0>         0.0605
     51 H20        -3.7453   -9.9644   -3.8327 H         1 <0>         0.0647
     52 H21        -2.1202   -9.8629   -3.0781 H         1 <0>         0.0641
     53 H22        -4.5799  -11.4167   -2.1026 H         1 <0>         0.0683
     54 H23        -2.8974  -12.0041   -2.2867 H         1 <0>         0.0620
     55 H24        -2.1987  -11.0021   -0.2986 H         1 <0>         0.0574
     56 H25        -3.9319  -11.1057    0.1214 H         1 <0>         0.0814
     57 H26         3.1959    3.5316    1.5596 H         1 <0>         0.4474
     58 H27         5.2285    0.1050    1.4324 H         1 <0>         0.4458
     59 H28         6.0518    1.5688    1.4796 H         1 <0>         0.4340
     60 H29         4.8758    3.5512    1.5532 H         1 <0>         0.4338
@<TRIPOS>BOND
     1    1    6 ar
     2    1    2 ar
     3    1   32 1
     4    2    3 ar
     5    2   33 1
     6    3    4 ar
     7    3   29 1
     8    4    5 ar
     9    4   34 1
    10    5   10 ar
    11    5    6 ar
    12    6    7 ar
    13    7    8 ar
    14    7   35 1
    15    8    9 ar
    16    8   11 1
    17    9   10 ar
    18    9   36 1
    19   10   37 1
    20   11   12 2
    21   11   13 am
    22   13   14 1
    23   13   38 1
    24   14   19 ar
    25   14   15 ar
    26   15   16 ar
    27   15   39 1
    28   16   17 ar
    29   16   40 1
    30   17   23 1
    31   17   18 ar
    32   18   19 ar
    33   18   20 1
    34   19   41 1
    35   20   21 1
    36   20   24 1
    37   20   42 1
    38   21   22 1
    39   21   43 1
    40   22   23 1
    41   22   44 1
    42   22   45 1
    43   23   46 1
    44   23   47 1
    45   24   28 1
    46   24   25 1
    47   24   48 1
    48   25   26 1
    49   25   49 1
    50   25   50 1
    51   26   27 1
    52   26   51 1
    53   26   52 1
    54   27   28 1
    55   27   53 1
    56   27   54 1
    57   28   55 1
    58   28   56 1
    59   29   30 2
    60   29   31 1
    61   30   57 1
    62   30   60 1
    63   31   58 1
    64   31   59 1
@<TRIPOS>MOLECULE
CHEMBL355531
   46    48     0     0     0
SMALL
USER_CHARGES

@<TRIPOS>ATOM
      1 C1         -0.0225    1.8097    0.0120 C.3       1 <0>        -0.2222
      2 S1          0.0021   -0.0041    0.0020 S.3       1 <0>         0.1761
      3 C2         -1.7016   -0.4536    0.0159 C.2       1 <0>        -0.0849
      4 C3         -2.2709   -1.7257    0.0202 C.2       1 <0>        -0.0801
      5 C4         -3.6446   -1.8265    0.0314 C.2       1 <0>         0.0217
      6 C5         -4.3955   -0.6640    0.0379 C.2       1 <0>        -0.3240
      7 S2         -3.1394    0.6038    0.0359 S.3       1 <0>         0.1759
      8 C6         -5.8501   -0.5126    0.0492 C.cat     1 <0>         0.6518
      9 N1         -6.3960    0.7099    0.0541 N.pl3     1 <0>        -0.7732
     10 N2         -6.6359   -1.5967    0.0545 N.pl3     1 <0>        -0.7668
     11 C7         -1.4188   -2.9409    0.0123 C.2       1 <0>         0.1598
     12 C8         -1.9583   -4.1955    0.0111 C.2       1 <0>        -0.2763
     13 S3         -0.4793   -5.1952    0.0002 S.3       1 <0>         0.1235
     14 C9          0.6500   -3.9479   -0.0017 C.2       1 <0>         0.3352
     15 N3         -0.0930   -2.8632    0.0005 N.2       1 <0>        -0.5924
     16 N4          2.0324   -4.0416   -0.0087 N.pl3     1 <0>        -0.6741
     17 C10         2.6774   -5.3569   -0.0164 C.3       1 <0>         0.1181
     18 C11         4.1971   -5.1797   -0.0232 C.3       1 <0>        -0.1241
     19 C12         4.8708   -6.5533   -0.0312 C.3       1 <0>        -0.0758
     20 C13         6.3676   -6.3787   -0.0379 C.ar      1 <0>        -0.0888
     21 C14         7.0476   -6.2889   -1.2381 C.ar      1 <0>        -0.1167
     22 C15         8.4206   -6.1287   -1.2443 C.ar      1 <0>        -0.1173
     23 C16         9.1136   -6.0580   -0.0503 C.ar      1 <0>        -0.1204
     24 C17         8.4335   -6.1469    1.1499 C.ar      1 <0>        -0.1173
     25 C18         7.0600   -6.3028    1.1561 C.ar      1 <0>        -0.1167
     26 H1          1.0001    2.1870    0.0043 H         1 <0>         0.1303
     27 H2         -0.5497    2.1708   -0.8711 H         1 <0>         0.0951
     28 H3         -0.5327    2.1613    0.9088 H         1 <0>         0.0950
     29 H4         -4.1261   -2.7933    0.0347 H         1 <0>         0.1552
     30 H5         -7.3608    0.8103    0.0616 H         1 <0>         0.4346
     31 H6         -6.2405   -2.4824    0.0509 H         1 <0>         0.4432
     32 H7         -7.6007   -1.4963    0.0620 H         1 <0>         0.4342
     33 H8         -2.9947   -4.4993    0.0157 H         1 <0>         0.1915
     34 H9          2.5730   -3.2363   -0.0086 H         1 <0>         0.4167
     35 H10         2.3804   -5.9124    0.8732 H         1 <0>         0.0751
     36 H11         2.3717   -5.9063   -0.9068 H         1 <0>         0.0750
     37 H12         4.4941   -4.6241   -0.9128 H         1 <0>         0.0769
     38 H13         4.5028   -4.6302    0.8672 H         1 <0>         0.0770
     39 H14         4.5737   -7.1089    0.8583 H         1 <0>         0.0783
     40 H15         4.5650   -7.1028   -0.9216 H         1 <0>         0.0783
     41 H16         6.5062   -6.3442   -2.1710 H         1 <0>         0.1211
     42 H17         8.9519   -6.0593   -2.1820 H         1 <0>         0.1232
     43 H18        10.1864   -5.9336   -0.0551 H         1 <0>         0.1231
     44 H19         8.9749   -6.0920    2.0828 H         1 <0>         0.1232
     45 H20         6.5282   -6.3685    2.0938 H         1 <0>         0.1211
     46 H21        -5.8267    1.4953    0.0503 H         1 <0>         0.4408
@<TRIPOS>BOND
     1    1    2 1
     2    1   26 1
     3    1   27 1
     4    1   28 1
     5    2    3 1
     6    3    7 1
     7    3    4 2
     8    4    5 1
     9    4   11 1
    10    5    6 2
    11    5   29 1
    12    6    7 1
    13    6    8 1
    14    8    9 2
    15    8   10 1
    16    9   30 1
    17    9   46 1
    18   10   31 1
    19   10   32 1
    20   11   15 1
    21   11   12 2
    22   12   13 1
    23   12   33 1
    24   13   14 1
    25   14   15 2
    26   14   16 1
    27   16   17 1
    28   16   34 1
    29   17   18 1
    30   17   35 1
    31   17   36 1
    32   18   19 1
    33   18   37 1
    34   18   38 1
    35   19   20 1
    36   19   39 1
    37   19   40 1
    38   20   25 ar
    39   20   21 ar
    40   21   22 ar
    41   21   41 1
    42   22   23 ar
    43   22   42 1
    44   23   24 ar
    45   23   43 1
    46   24   25 ar
    47   24   44 1
    48   25   45 1
@<TRIPOS>MOLECULE
CHEMBL560416
   66    70     0     0     0
SMALL
USER_CHARGES

@<TRIPOS>ATOM
      1 C1          0.4040    1.3651    1.6548 C.ar      1 <0>        -0.2613
      2 C2          1.3478    2.0322    0.8895 C.ar      1 <0>         0.1945
      3 N1          2.3446    1.3476    0.3535 N.ar      1 <0>        -0.5544
      4 C3          2.4463    0.0400    0.5414 C.ar      1 <0>         0.5440
      5 N2          1.5611   -0.6275    1.2668 N.ar      1 <0>        -0.5538
      6 C4          0.5407   -0.0030    1.8310 C.ar      1 <0>         0.1863
      7 N3          3.5033   -0.6457   -0.0349 N.pl3     1 <0>        -0.6384
      8 C5          3.5596   -2.0350    0.0473 C.ar      1 <0>         0.2039
      9 C6          2.3988   -2.7802    0.0434 C.ar      1 <0>        -0.1130
     10 C7          2.4451   -4.1676    0.1250 C.ar      1 <0>        -0.0169
     11 C8          3.6337   -4.8287    0.2104 C.ar      1 <0>        -0.1373
     12 C9          4.8391   -4.1093    0.2172 C.ar      1 <0>         0.0128
     13 C10         4.8064   -2.6944    0.1296 C.ar      1 <0>        -0.0860
     14 C11         6.0072   -1.9739    0.1315 C.ar      1 <0>        -0.0108
     15 C12         7.2108   -2.6551    0.2139 C.ar      1 <0>        -0.1557
     16 C13         7.2320   -4.0588    0.2951 C.ar      1 <0>        -0.0879
     17 C14         6.0777   -4.7725    0.3052 C.ar      1 <0>        -0.0811
     18 C15         8.4819   -1.9008    0.2159 C.cat     1 <0>         0.5986
     19 N4          9.6421   -2.5509    0.2949 N.pl3     1 <0>        -0.7595
     20 N5          8.4675   -0.5709    0.1388 N.pl3     1 <0>        -0.7654
     21 C16         1.1592   -4.9533    0.1194 C.3       1 <0>        -0.0802
     22 C17         0.7809   -5.3020   -1.3215 C.3       1 <0>        -0.0860
     23 C18        -0.5051   -6.0877   -1.3272 C.ar      1 <0>        -0.0463
     24 C19        -0.4727   -7.4670   -1.2408 C.ar      1 <0>        -0.1116
     25 C20        -1.6522   -8.1877   -1.2460 C.ar      1 <0>        -0.0887
     26 C21        -2.8642   -7.5292   -1.3370 C.ar      1 <0>        -0.1624
     27 C22        -2.8967   -6.1499   -1.4224 C.ar      1 <0>        -0.0890
     28 C23        -1.7173   -5.4289   -1.4130 C.ar      1 <0>        -0.1124
     29 C24        -4.1501   -8.3150   -1.3436 C.3       1 <0>         0.0477
     30 N6         -4.6262   -8.4866    0.0354 N.4       1 <0>        -0.3929
     31 C25        -5.0652   -7.1813    0.5919 C.3       1 <0>        -0.0052
     32 C26        -6.0182   -7.5893    1.7434 C.3       1 <0>        -0.1455
     33 C27        -6.7476   -8.8246    1.1671 C.3       1 <0>        -0.1455
     34 C28        -5.8218   -9.3570    0.0576 C.3       1 <0>        -0.0096
     35 H1         -0.4175    1.9003    2.1076 H         1 <0>         0.1553
     36 H2          1.2700    3.0979    0.7326 H         1 <0>         0.1785
     37 H3         -0.1773   -0.5525    2.4218 H         1 <0>         0.1748
     38 H4          4.2041   -0.1583   -0.4955 H         1 <0>         0.4227
     39 H5          1.4436   -2.2807   -0.0235 H         1 <0>         0.1472
     40 H6          3.6482   -5.9068    0.2733 H         1 <0>         0.1404
     41 H7          5.9951   -0.8958    0.0689 H         1 <0>         0.1330
     42 H8          8.1786   -4.5750    0.3583 H         1 <0>         0.1369
     43 H9          6.1098   -5.8502    0.3684 H         1 <0>         0.1513
     44 H10         9.6526   -3.5192    0.3511 H         1 <0>         0.4448
     45 H11         7.6228   -0.0975    0.0812 H         1 <0>         0.4413
     46 H12         9.3017   -0.0759    0.1401 H         1 <0>         0.4350
     47 H13         1.2916   -5.8710    0.6925 H         1 <0>         0.0839
     48 H14         0.3662   -4.3556    0.5687 H         1 <0>         0.0834
     49 H15         0.6484   -4.3843   -1.8946 H         1 <0>         0.0825
     50 H16         1.5739   -5.8998   -1.7709 H         1 <0>         0.0847
     51 H17         0.4742   -7.9815   -1.1697 H         1 <0>         0.1350
     52 H18        -1.6269   -9.2654   -1.1793 H         1 <0>         0.1320
     53 H19        -3.8436   -5.6354   -1.4939 H         1 <0>         0.1304
     54 H20        -1.7428   -4.3510   -1.4759 H         1 <0>         0.1335
     55 H21        -4.9011   -7.7780   -1.9231 H         1 <0>         0.1348
     56 H22        -3.9760   -9.2930   -1.7923 H         1 <0>         0.1359
     57 H23        -4.2132   -6.6216    0.9778 H         1 <0>         0.1319
     58 H24        -5.5983   -6.6016   -0.1616 H         1 <0>         0.1319
     59 H25        -5.4525   -7.8569    2.6358 H         1 <0>         0.0972
     60 H26        -6.7264   -6.7894    1.9597 H         1 <0>         0.1165
     61 H27        -6.8827   -9.5796    1.9417 H         1 <0>         0.1057
     62 H28        -7.7112   -8.5340    0.7488 H         1 <0>         0.1045
     63 H29        -6.3317   -9.3121   -0.9047 H         1 <0>         0.1315
     64 H30        -5.5297  -10.3836    0.2785 H         1 <0>         0.1326
     65 H31        10.4763   -2.0559    0.2963 H         1 <0>         0.4343
     66 H32        -3.8967   -8.8828    0.6090 H         1 <0>         0.4255
@<TRIPOS>BOND
     1    1    6 ar
     2    1    2 ar
     3    1   35 1
     4    2    3 ar
     5    2   36 1
     6    3    4 ar
     7    4    5 ar
     8    4    7 1
     9    5    6 ar
    10    6   37 1
    11    7    8 1
    12    7   38 1
    13    8   13 ar
    14    8    9 ar
    15    9   10 ar
    16    9   39 1
    17   10   11 ar
    18   10   21 1
    19   11   12 ar
    20   11   40 1
    21   12   17 ar
    22   12   13 ar
    23   13   14 ar
    24   14   15 ar
    25   14   41 1
    26   15   16 ar
    27   15   18 1
    28   16   17 ar
    29   16   42 1
    30   17   43 1
    31   18   19 2
    32   18   20 1
    33   19   44 1
    34   19   65 1
    35   20   45 1
    36   20   46 1
    37   21   22 1
    38   21   47 1
    39   21   48 1
    40   22   23 1
    41   22   49 1
    42   22   50 1
    43   23   28 ar
    44   23   24 ar
    45   24   25 ar
    46   24   51 1
    47   25   26 ar
    48   25   52 1
    49   26   27 ar
    50   26   29 1
    51   27   28 ar
    52   27   53 1
    53   28   54 1
    54   29   30 1
    55   29   55 1
    56   29   56 1
    57   30   34 1
    58   30   31 1
    59   30   66 1
    60   31   32 1
    61   31   57 1
    62   31   58 1
    63   32   33 1
    64   32   59 1
    65   32   60 1
    66   33   34 1
    67   33   61 1
    68   33   62 1
    69   34   63 1
    70   34   64 1
@<TRIPOS>MOLECULE
CHEMBL301324
   33    34     0     0     0
SMALL
USER_CHARGES

@<TRIPOS>ATOM
      1 C1          0.0117    1.0478   -0.2082 C.ar      1 <0>        -0.0982
      2 C2          0.9888    1.9825    0.0791 C.ar      1 <0>        -0.1206
      3 C3          2.3149    1.5981    0.1452 C.ar      1 <0>        -0.0930
      4 C4          2.6639    0.2788   -0.0755 C.ar      1 <0>        -0.1131
      5 C5          1.6867   -0.6560   -0.3618 C.ar      1 <0>        -0.0929
      6 C6          0.3607   -0.2713   -0.4293 C.ar      1 <0>        -0.1207
      7 C7          4.1098   -0.1401   -0.0044 C.3       1 <0>         0.1015
      8 O1          4.4277   -0.5293    1.3334 O.3       1 <0>        -0.3020
      9 C8          5.7027   -0.9380    1.5709 C.ar      1 <0>         0.1043
     10 C9          6.6371   -0.9618    0.5452 C.ar      1 <0>        -0.1187
     11 C10         7.9273   -1.3863    0.8355 C.ar      1 <0>        -0.0499
     12 C11         8.2396   -1.7691    2.1259 C.ar      1 <0>         0.1223
     13 N1          7.3305   -1.7365    3.0821 N.ar      1 <0>        -0.4851
     14 C12         6.0922   -1.3340    2.8503 C.ar      1 <0>         0.3152
     15 N2          5.1652   -1.3108    3.8940 N.pl3     1 <0>        -0.6184
     16 C13         5.5008   -1.8228    5.1199 C.cat     1 <0>         0.7458
     17 N3          4.6727   -1.6752    6.1526 N.pl3     1 <0>        -0.7914
     18 N4          6.6551   -2.4680    5.2788 N.pl3     1 <0>        -0.7679
     19 Cl1         9.1351   -1.4359   -0.4104 Cl        1 <0>        -0.0072
     20 H1         -1.0249    1.3473   -0.2554 H         1 <0>         0.1299
     21 H2          0.7161    3.0132    0.2514 H         1 <0>         0.1301
     22 H3          3.0784    2.3285    0.3689 H         1 <0>         0.1254
     23 H4          1.9594   -1.6867   -0.5346 H         1 <0>         0.1252
     24 H5         -0.4027   -1.0016   -0.6534 H         1 <0>         0.1300
     25 H6          4.2779   -0.9811   -0.6771 H         1 <0>         0.0841
     26 H7          4.7449    0.6947   -0.3006 H         1 <0>         0.0841
     27 H8          6.3674   -0.6576   -0.4553 H         1 <0>         0.1712
     28 H9          9.2417   -2.1001    2.3552 H         1 <0>         0.1930
     29 H10         4.2836   -0.9321    3.7514 H         1 <0>         0.4558
     30 H11         3.8321   -1.2053    6.0369 H         1 <0>         0.4404
     31 H12         7.2325   -2.6242    4.5152 H         1 <0>         0.4464
     32 H13         6.9184   -2.7816    6.1581 H         1 <0>         0.4306
     33 H14         4.9103   -2.0377    7.0204 H         1 <0>         0.4439
@<TRIPOS>BOND
     1    1    6 ar
     2    1    2 ar
     3    1   20 1
     4    2    3 ar
     5    2   21 1
     6    3    4 ar
     7    3   22 1
     8    4    5 ar
     9    4    7 1
    10    5    6 ar
    11    5   23 1
    12    6   24 1
    13    7    8 1
    14    7   25 1
    15    7   26 1
    16    8    9 1
    17    9   14 ar
    18    9   10 ar
    19   10   11 ar
    20   10   27 1
    21   11   12 ar
    22   11   19 1
    23   12   13 ar
    24   12   28 1
    25   13   14 ar
    26   14   15 1
    27   15   16 1
    28   15   29 1
    29   16   17 2
    30   16   18 1
    31   17   30 1
    32   17   33 1
    33   18   31 1
    34   18   32 1
@<TRIPOS>MOLECULE
CHEMBL301324__1
   32    33     0     0     0
SMALL
USER_CHARGES

@<TRIPOS>ATOM
      1 C1         -0.0074    1.3154   -0.0400 C.ar      1 <0>        -0.1082
      2 C2          1.1764    2.0292   -0.0470 C.ar      1 <0>        -0.1235
      3 C3          2.3865    1.3609   -0.0497 C.ar      1 <0>        -0.0952
      4 C4          2.4128   -0.0212   -0.0450 C.ar      1 <0>        -0.0961
      5 C5          1.2290   -0.7350   -0.0371 C.ar      1 <0>        -0.0927
      6 C6          0.0190   -0.0667   -0.0358 C.ar      1 <0>        -0.1219
      7 C7          3.7320   -0.7497   -0.0490 C.3       1 <0>         0.0964
      8 O1          4.1556   -0.9753    1.2970 O.3       1 <0>        -0.2841
      9 C8          5.3366   -1.6263    1.4716 C.ar      1 <0>         0.0675
     10 C9          6.0814   -2.0379    0.3782 C.ar      1 <0>        -0.1513
     11 C10         7.2828   -2.7002    0.6049 C.ar      1 <0>        -0.0786
     12 C11         7.6987   -2.9286    1.9023 C.ar      1 <0>         0.0948
     13 N1          6.9734   -2.5279    2.9293 N.ar      1 <0>        -0.4618
     14 C12         5.8223   -1.8865    2.7609 C.ar      1 <0>         0.3423
     15 N2          5.1043   -1.4826    3.8512 N.2       1 <0>        -0.6192
     16 C13         5.3830   -0.3385    4.4345 C.2       1 <0>         0.6816
     17 N3          6.3186    0.5010    3.8858 N.pl3     1 <0>        -0.8780
     18 N4          4.7382    0.0162    5.5919 N.pl3     1 <0>        -0.8357
     19 Cl1         8.2521   -3.2364   -0.7318 Cl        1 <0>        -0.0557
     20 H1         -0.9528    1.8375   -0.0333 H         1 <0>         0.1251
     21 H2          1.1558    3.1090   -0.0506 H         1 <0>         0.1254
     22 H3          3.3113    1.9186   -0.0559 H         1 <0>         0.1223
     23 H4          1.2496   -1.8148   -0.0338 H         1 <0>         0.1246
     24 H5         -0.9059   -0.6244   -0.0300 H         1 <0>         0.1264
     25 H6          3.6173   -1.7062   -0.5589 H         1 <0>         0.0723
     26 H7          4.4777   -0.1481   -0.5686 H         1 <0>         0.0709
     27 H8          5.7365   -1.8488   -0.6277 H         1 <0>         0.1468
     28 H9          8.6316   -3.4434    2.0788 H         1 <0>         0.1653
     29 H10         6.7192    0.2867    3.0288 H         1 <0>         0.4100
     30 H11         4.0765   -0.5775    5.9800 H         1 <0>         0.4233
     31 H12         4.9439    0.8608    6.0224 H         1 <0>         0.4086
     32 H13         6.5798    1.3089    4.3549 H         1 <0>         0.3983
@<TRIPOS>BOND
     1    1    6 ar
     2    1    2 ar
     3    1   20 1
     4    2    3 ar
     5    2   21 1
     6    3    4 ar
     7    3   22 1
     8    4    5 ar
     9    4    7 1
    10    5    6 ar
    11    5   23 1
    12    6   24 1
    13    7    8 1
    14    7   25 1
    15    7   26 1
    16    8    9 1
    17    9   14 ar
    18    9   10 ar
    19   10   11 ar
    20   10   27 1
    21   11   12 ar
    22   11   19 1
    23   12   13 ar
    24   12   28 1
    25   13   14 ar
    26   14   15 1
    27   15   16 2
    28   16   17 1
    29   16   18 1
    30   17   29 1
    31   17   32 1
    32   18   30 1
    33   18   31 1
@<TRIPOS>MOLECULE
CHEMBL228113
   57    60     0     0     0
SMALL
USER_CHARGES

@<TRIPOS>ATOM
      1 C1          1.5832    0.8895   -0.1599 C.ar      1 <0>        -0.0126
      2 C2          2.8875    1.2760   -0.2560 C.ar      1 <0>        -0.1294
      3 C3          3.8935    0.3018   -0.2931 C.ar      1 <0>         0.0443
      4 C4          3.5394   -1.0691   -0.2303 C.ar      1 <0>        -0.1576
      5 C5          2.1934   -1.4306   -0.1323 C.ar      1 <0>         0.0591
      6 C6          1.2373   -0.4573   -0.0984 C.ar      1 <0>        -0.6939
      7 S1         -0.4603   -0.9124    0.0257 S.o2      1 <0>         2.6826
      8 O1         -0.4879   -2.2563    0.4863 O.2       1 <0>        -0.9362
      9 O2         -1.1144    0.1433    0.7164 O.2       1 <0>        -0.9498
     10 N1         -1.0772   -0.9260   -1.5111 N.pl3     1 <0>        -1.1068
     11 C7         -0.6009   -1.9135   -2.4828 C.3       1 <0>         0.1601
     12 C8          0.8735   -1.6428   -2.8299 C.3       1 <0>        -0.1486
     13 C9          0.9246   -1.3588   -4.3453 C.3       1 <0>        -0.1174
     14 C10        -0.5074   -0.8799   -4.6905 C.3       1 <0>        -0.1229
     15 C11        -1.3944   -1.7846   -3.7995 C.3       1 <0>        -0.1142
     16 C12        -0.7534   -3.3040   -1.9222 C.2       1 <0>         0.5186
     17 O3          0.1217   -4.1261   -2.0931 O.2       1 <0>        -0.5192
     18 N2         -1.8624   -3.6341   -1.2310 N.am      1 <0>        -0.5878
     19 C13        -2.9826   -2.6890   -1.1001 C.3       1 <0>         0.0550
     20 C14        -4.2754   -3.4145   -1.4903 C.3       1 <0>         0.0470
     21 O4         -4.3781   -4.6284   -0.7422 O.3       1 <0>        -0.3768
     22 C15        -3.3300   -5.5657   -1.0007 C.3       1 <0>         0.0460
     23 C16        -1.9912   -4.9524   -0.5901 C.3       1 <0>         0.0821
     24 C17         4.6131   -2.0612   -0.2708 C.ar      1 <0>         0.4363
     25 N3          5.8694   -1.6436   -0.3641 N.ar      1 <0>        -0.5126
     26 C18         6.1896   -0.3594   -0.4222 C.ar      1 <0>         0.1510
     27 C19         5.2603    0.6334   -0.3911 C.ar      1 <0>        -0.1345
     28 Cl1         5.7534    2.2959   -0.4720 Cl        1 <0>        -0.0503
     29 N4          4.3290   -3.3894   -0.2133 N.2       1 <0>        -0.6311
     30 C20         4.1898   -3.9832    0.9541 C.2       1 <0>         0.6940
     31 N5          4.2309   -3.2452    2.1068 N.pl3     1 <0>        -0.8756
     32 N6          4.0039   -5.3385    1.0150 N.pl3     1 <0>        -0.8265
     33 H1          0.8072    1.6400   -0.1267 H         1 <0>         0.1429
     34 H2          3.1427    2.3243   -0.3033 H         1 <0>         0.1452
     35 H3          1.9117   -2.4721   -0.0841 H         1 <0>         0.1510
     36 H4         -1.7539   -0.2802   -1.7678 H         1 <0>         0.4241
     37 H5          1.2347   -0.7767   -2.2753 H         1 <0>         0.0819
     38 H6          1.4795   -2.5174   -2.5933 H         1 <0>         0.1006
     39 H7          1.6513   -0.5760   -4.5625 H         1 <0>         0.0726
     40 H8          1.1659   -2.2680   -4.8959 H         1 <0>         0.0739
     41 H9         -0.6379    0.1695   -4.4264 H         1 <0>         0.0745
     42 H10        -0.7257   -1.0439   -5.7457 H         1 <0>         0.0774
     43 H11        -1.5276   -2.7626   -4.2619 H         1 <0>         0.0872
     44 H12        -2.3600   -1.3125   -3.6182 H         1 <0>         0.0850
     45 H13        -3.0527   -2.3433   -0.0687 H         1 <0>         0.0739
     46 H14        -2.8246   -1.8383   -1.7630 H         1 <0>         0.1046
     47 H15        -5.1315   -2.7771   -1.2693 H         1 <0>         0.1083
     48 H16        -4.2567   -3.6439   -2.5557 H         1 <0>         0.0582
     49 H17        -3.5060   -6.4759   -0.4274 H         1 <0>         0.1081
     50 H18        -3.3079   -5.8029   -2.0643 H         1 <0>         0.0555
     51 H19        -1.1769   -5.5999   -0.9155 H         1 <0>         0.1015
     52 H20        -1.9597   -4.8385    0.4935 H         1 <0>         0.0818
     53 H21         7.2325   -0.0893   -0.4975 H         1 <0>         0.1629
     54 H22         4.2883   -2.2779    2.0617 H         1 <0>         0.4125
     55 H23         4.2026   -3.6896    2.9685 H         1 <0>         0.4043
     56 H24         3.9747   -5.8612    0.1985 H         1 <0>         0.4273
     57 H25         3.9014   -5.7758    1.8748 H         1 <0>         0.4128
@<TRIPOS>BOND
     1    1    6 ar
     2    1    2 ar
     3    1   33 1
     4    2    3 ar
     5    2   34 1
     6    3   27 ar
     7    3    4 ar
     8    4    5 ar
     9    4   24 ar
    10    5    6 ar
    11    5   35 1
    12    6    7 1
    13    7    8 2
    14    7    9 2
    15    7   10 1
    16   10   11 1
    17   10   36 1
    18   11   15 1
    19   11   12 1
    20   11   16 1
    21   12   13 1
    22   12   37 1
    23   12   38 1
    24   13   14 1
    25   13   39 1
    26   13   40 1
    27   14   15 1
    28   14   41 1
    29   14   42 1
    30   15   43 1
    31   15   44 1
    32   16   17 2
    33   16   18 am
    34   18   23 1
    35   18   19 1
    36   19   20 1
    37   19   45 1
    38   19   46 1
    39   20   21 1
    40   20   47 1
    41   20   48 1
    42   21   22 1
    43   22   23 1
    44   22   49 1
    45   22   50 1
    46   23   51 1
    47   23   52 1
    48   24   25 ar
    49   24   29 1
    50   25   26 ar
    51   26   27 ar
    52   26   53 1
    53   27   28 1
    54   29   30 2
    55   30   31 1
    56   30   32 1
    57   31   54 1
    58   31   55 1
    59   32   56 1
    60   32   57 1
@<TRIPOS>MOLECULE
CHEMBL174813
   62    62     0     0     0
SMALL
USER_CHARGES

@<TRIPOS>ATOM
      1 C1          0.6124    2.0081   -0.5535 C.3       1 <0>        -0.1591
      2 C2          0.4389    0.4881   -0.5344 C.3       1 <0>         0.1298
      3 H1          0.9837    0.0496   -1.3705 H         1 <0>         0.1202
      4 C3          0.9780   -0.0628    0.7606 C.2       1 <0>         0.5228
      5 O1          0.2462   -0.6716    1.5120 O.2       1 <0>        -0.5225
      6 N1          2.2735    0.1211    1.0837 N.am      1 <0>        -0.7197
      7 C4          2.7976   -0.4144    2.3426 C.3       1 <0>         0.1430
      8 H2          2.0280   -0.3539    3.1121 H         1 <0>         0.1077
      9 C5          3.2083   -1.8753    2.1446 C.3       1 <0>        -0.1379
     10 C6          3.7253   -2.4454    3.4674 C.3       1 <0>        -0.1367
     11 C7          4.9581   -1.6528    3.9133 C.3       1 <0>         0.1071
     12 N2          4.6096   -0.2265    3.9661 N.pl3     1 <0>        -0.6335
     13 C8          4.0194    0.4017    2.7761 C.3       1 <0>         0.3213
     14 O2          3.6174    1.7370    3.0881 O.3       1 <0>        -0.5453
     15 C9          4.8300    0.5032    5.1019 C.cat     1 <0>         0.7468
     16 N3          3.9541    1.4345    5.4756 N.pl3     1 <0>        -0.7774
     17 N4          5.9205    0.2825    5.8342 N.pl3     1 <0>        -0.7854
     18 N5         -0.9835    0.1574   -0.6511 N.am      1 <0>        -0.7109
     19 C10        -1.5594    0.0783   -1.8671 C.2       1 <0>         0.5317
     20 O3         -0.9000    0.2808   -2.8647 O.2       1 <0>        -0.5204
     21 C11        -3.0226   -0.2618   -1.9872 C.3       1 <0>         0.1521
     22 H3         -3.2054   -1.2411   -1.5450 H         1 <0>         0.1339
     23 C12        -3.8532    0.7925   -1.2528 C.3       1 <0>         0.0643
     24 O4         -3.5268    2.0902   -1.7543 O.3       1 <0>        -0.5649
     25 N6         -3.4039   -0.2857   -3.4015 N.am      1 <0>        -0.6882
     26 C13        -4.4580   -1.0234   -3.8029 C.2       1 <0>         0.6544
     27 O5         -5.0921   -1.6686   -2.9917 O.2       1 <0>        -0.5727
     28 O6         -4.8084   -1.0453   -5.1026 O.3       1 <0>        -0.3568
     29 C14        -5.9359   -1.8486   -5.4571 C.3       1 <0>         0.0885
     30 C15        -6.1798   -1.7485   -6.9642 C.3       1 <0>        -0.0959
     31 C16        -4.9949   -2.3604   -7.7143 C.3       1 <0>        -0.1491
     32 C17        -7.4586   -2.5068   -7.3254 C.3       1 <0>        -0.1472
     33 H4          1.6708    2.2541   -0.4666 H         1 <0>         0.0701
     34 H5          0.2225    2.4065   -1.4901 H         1 <0>         0.0828
     35 H6          0.0677    2.4465    0.2826 H         1 <0>         0.0661
     36 H7          2.8589    0.6081    0.4828 H         1 <0>         0.4082
     37 H8          2.3458   -2.4532    1.8126 H         1 <0>         0.0953
     38 H9          3.9949   -1.9326    1.3923 H         1 <0>         0.0811
     39 H10         2.9474   -2.3658    4.2267 H         1 <0>         0.0808
     40 H11         3.9957   -3.4925    3.3313 H         1 <0>         0.1053
     41 H12         5.2711   -1.9893    4.9016 H         1 <0>         0.0990
     42 H13         5.7680   -1.8049    3.1998 H         1 <0>         0.1016
     43 H14         4.7529    0.4177    1.9701 H         1 <0>         0.1113
     44 H15         4.3523    2.3317    3.2915 H         1 <0>         0.3955
     45 H16         3.1170    1.5335    4.9956 H         1 <0>         0.4487
     46 H17         6.5215   -0.4428    5.6027 H         1 <0>         0.4404
     47 H18         6.1136    0.8470    6.5989 H         1 <0>         0.4393
     48 H19        -1.5109   -0.0045    0.1467 H         1 <0>         0.4116
     49 H20        -4.9133    0.5968   -1.4138 H         1 <0>         0.0705
     50 H21        -3.6338    0.7495   -0.1860 H         1 <0>         0.0641
     51 H22        -4.0170    2.8094   -1.3329 H         1 <0>         0.3871
     52 H23        -2.8977    0.2294   -4.0491 H         1 <0>         0.4206
     53 H24        -5.7410   -2.8869   -5.1887 H         1 <0>         0.0703
     54 H25        -6.8170   -1.4943   -4.9222 H         1 <0>         0.0700
     55 H26        -6.2865   -0.7011   -7.2462 H         1 <0>         0.0830
     56 H27        -4.8882   -3.4079   -7.4323 H         1 <0>         0.0551
     57 H28        -5.1687   -2.2891   -8.7880 H         1 <0>         0.0600
     58 H29        -4.0839   -1.8202   -7.4570 H         1 <0>         0.0611
     59 H30        -8.3027   -2.0709   -6.7910 H         1 <0>         0.0596
     60 H31        -7.6323   -2.4355   -8.3991 H         1 <0>         0.0679
     61 H32        -7.3518   -3.5543   -7.0434 H         1 <0>         0.0597
     62 H33         4.1533    2.0137    6.2278 H         1 <0>         0.4336
@<TRIPOS>BOND
     1    1    2 1
     2    1   33 1
     3    1   34 1
     4    1   35 1
     5    2    3 1
     6    2    4 1
     7    2   18 1
     8    4    5 2
     9    4    6 am
    10    6    7 1
    11    6   36 1
    12    7    8 1
    13    7   13 1
    14    7    9 1
    15    9   10 1
    16    9   37 1
    17    9   38 1
    18   10   11 1
    19   10   39 1
    20   10   40 1
    21   11   12 1
    22   11   41 1
    23   11   42 1
    24   12   13 1
    25   12   15 1
    26   13   14 1
    27   13   43 1
    28   14   44 1
    29   15   16 2
    30   15   17 1
    31   16   45 1
    32   16   62 1
    33   17   46 1
    34   17   47 1
    35   18   19 am
    36   18   48 1
    37   19   20 2
    38   19   21 1
    39   21   22 1
    40   21   23 1
    41   21   25 1
    42   23   24 1
    43   23   49 1
    44   23   50 1
    45   24   51 1
    46   25   26 am
    47   25   52 1
    48   26   27 2
    49   26   28 1
    50   28   29 1
    51   29   30 1
    52   29   53 1
    53   29   54 1
    54   30   31 1
    55   30   32 1
    56   30   55 1
    57   31   56 1
    58   31   57 1
    59   31   58 1
    60   32   59 1
    61   32   60 1
    62   32   61 1
@<TRIPOS>MOLECULE
CHEMBL174813__1
   62    62     0     0     0
SMALL
USER_CHARGES

@<TRIPOS>ATOM
      1 C1         -0.0187    1.5258    0.0104 C.3       1 <0>        -0.1603
      2 C2          0.0021   -0.0041    0.0020 C.3       1 <0>         0.1296
      3 H1          0.5123   -0.3556   -0.8948 H         1 <0>         0.1212
      4 C3          0.7309   -0.5033    1.2229 C.2       1 <0>         0.5201
      5 O1          0.1587   -1.2128    2.0229 O.2       1 <0>        -0.5237
      6 N1          2.0187   -0.1613    1.4257 N.am      1 <0>        -0.7200
      7 C4          2.7273   -0.6466    2.6126 C.3       1 <0>         0.1535
      8 H2          2.0358   -0.6975    3.4537 H         1 <0>         0.1121
      9 C5          3.2960   -2.0398    2.3339 C.3       1 <0>        -0.1387
     10 C6          4.0082   -2.5614    3.5841 C.3       1 <0>        -0.1372
     11 C7          5.1700   -1.6258    3.9327 C.3       1 <0>         0.1067
     12 N2          4.6527   -0.2565    4.0600 N.pl3     1 <0>        -0.6257
     13 C8          3.8741    0.3111    2.9507 C.3       1 <0>         0.3132
     14 O2          4.7167    0.4719    1.8078 O.3       1 <0>        -0.5402
     15 C9          4.8910    0.4763    5.1901 C.cat     1 <0>         0.7529
     16 N3          4.9347   -0.1259    6.3774 N.pl3     1 <0>        -0.7794
     17 N4          5.0793    1.7920    5.1034 N.pl3     1 <0>        -0.7872
     18 N5         -1.3723   -0.5112    0.0124 N.am      1 <0>        -0.7110
     19 C10        -2.0508   -0.6427   -1.1446 C.2       1 <0>         0.5315
     20 O3         -1.5236   -0.3413   -2.1944 O.2       1 <0>        -0.5197
     21 C11        -3.4646   -1.1643   -1.1339 C.3       1 <0>         0.1521
     22 H3         -3.4790   -2.1662   -0.7048 H         1 <0>         0.1340
     23 C12        -4.3441   -0.2367   -0.2931 C.3       1 <0>         0.0644
     24 O4         -4.2337    1.1001   -0.7857 O.3       1 <0>        -0.5649
     25 N6         -3.9776   -1.2130   -2.5053 N.am      1 <0>        -0.6882
     26 C13        -4.9655   -2.0722   -2.8252 C.2       1 <0>         0.6544
     27 O5         -5.4308   -2.8063   -1.9761 O.2       1 <0>        -0.5728
     28 O6         -5.4369   -2.1169   -4.0855 O.3       1 <0>        -0.3567
     29 C14        -6.4844   -3.0512   -4.3536 C.3       1 <0>         0.0885
     30 C15        -6.8864   -2.9579   -5.8269 C.3       1 <0>        -0.0958
     31 C16        -5.7141   -3.4014   -6.7044 C.3       1 <0>        -0.1492
     32 C17        -8.0896   -3.8668   -6.0858 C.3       1 <0>        -0.1472
     33 H4          1.0039    1.9031    0.0027 H         1 <0>         0.0701
     34 H5         -0.5459    1.8868   -0.8726 H         1 <0>         0.0840
     35 H6         -0.5289    1.8773    0.9072 H         1 <0>         0.0655
     36 H7          2.4764    0.4061    0.7859 H         1 <0>         0.4139
     37 H8          2.4840   -2.7172    2.0694 H         1 <0>         0.0881
     38 H9          4.0055   -1.9840    1.5084 H         1 <0>         0.0866
     39 H10         3.3051   -2.5941    4.4164 H         1 <0>         0.0781
     40 H11         4.3927   -3.5632    3.3924 H         1 <0>         0.1021
     41 H12         5.6186   -1.9361    4.8764 H         1 <0>         0.0937
     42 H13         5.9183   -1.6616    3.1409 H         1 <0>         0.1061
     43 H14         3.4674    1.2782    3.2464 H         1 <0>         0.0988
     44 H15         5.4652    1.0670    1.9516 H         1 <0>         0.3932
     45 H16         4.7976   -1.0841    6.4406 H         1 <0>         0.4429
     46 H17         5.0475    2.2305    4.2388 H         1 <0>         0.4380
     47 H18         5.2483    2.3116    5.9048 H         1 <0>         0.4416
     48 H19        -1.7940   -0.7522    0.8520 H         1 <0>         0.4115
     49 H20        -5.3821   -0.5632   -0.3576 H         1 <0>         0.0706
     50 H21        -4.0169   -0.2692    0.7461 H         1 <0>         0.0641
     51 H22        -4.7661    1.7439   -0.2987 H         1 <0>         0.3869
     52 H23        -3.6062   -0.6270   -3.1832 H         1 <0>         0.4207
     53 H24        -6.1357   -4.0606   -4.1353 H         1 <0>         0.0703
     54 H25        -7.3459   -2.8210   -3.7267 H         1 <0>         0.0699
     55 H26        -7.1506   -1.9281   -6.0669 H         1 <0>         0.0830
     56 H27        -5.4498   -4.4313   -6.4644 H         1 <0>         0.0551
     57 H28        -6.0004   -3.3350   -7.7540 H         1 <0>         0.0600
     58 H29        -4.8568   -2.7539   -6.5199 H         1 <0>         0.0611
     59 H30        -8.9248   -3.5509   -5.4607 H         1 <0>         0.0596
     60 H31        -8.3759   -3.8003   -7.1355 H         1 <0>         0.0679
     61 H32        -7.8253   -4.8967   -5.8458 H         1 <0>         0.0597
     62 H33         5.1037    0.3938    7.1788 H         1 <0>         0.4407
@<TRIPOS>BOND
     1    1    2 1
     2    1   33 1
     3    1   34 1
     4    1   35 1
     5    2    3 1
     6    2    4 1
     7    2   18 1
     8    4    5 2
     9    4    6 am
    10    6    7 1
    11    6   36 1
    12    7    8 1
    13    7   13 1
    14    7    9 1
    15    9   10 1
    16    9   37 1
    17    9   38 1
    18   10   11 1
    19   10   39 1
    20   10   40 1
    21   11   12 1
    22   11   41 1
    23   11   42 1
    24   12   13 1
    25   12   15 1
    26   13   14 1
    27   13   43 1
    28   14   44 1
    29   15   16 2
    30   15   17 1
    31   16   45 1
    32   16   62 1
    33   17   46 1
    34   17   47 1
    35   18   19 am
    36   18   48 1
    37   19   20 2
    38   19   21 1
    39   21   22 1
    40   21   23 1
    41   21   25 1
    42   23   24 1
    43   23   49 1
    44   23   50 1
    45   24   51 1
    46   25   26 am
    47   25   52 1
    48   26   27 2
    49   26   28 1
    50   28   29 1
    51   29   30 1
    52   29   53 1
    53   29   54 1
    54   30   31 1
    55   30   32 1
    56   30   55 1
    57   31   56 1
    58   31   57 1
    59   31   58 1
    60   32   59 1
    61   32   60 1
    62   32   61 1
@<TRIPOS>MOLECULE
CHEMBL597370
   53    56     0     0     0
SMALL
USER_CHARGES

@<TRIPOS>ATOM
      1 C1          1.0526    1.8494    0.5817 C.ar      1 <0>        -0.1009
      2 C2          2.3567    2.2494    0.3575 C.ar      1 <0>        -0.1138
      3 C3          3.3374    1.3055    0.1166 C.ar      1 <0>        -0.1016
      4 C4          3.0142   -0.0385    0.1004 C.ar      1 <0>        -0.1344
      5 C5          1.7102   -0.4385    0.3255 C.ar      1 <0>        -0.0911
      6 C6          0.7292    0.5056    0.5650 C.ar      1 <0>        -0.1179
      7 C7          4.0831   -1.0674   -0.1633 C.3       1 <0>         0.1208
      8 C8          4.0906   -1.4256   -1.6507 C.3       1 <0>         0.1481
      9 N1          5.1298   -2.4259   -1.9070 N.am      1 <0>        -0.7083
     10 C9          5.3211   -2.8941   -3.1563 C.2       1 <0>         0.6451
     11 O1          4.6316   -2.4864   -4.0701 O.2       1 <0>        -0.5449
     12 O2          6.2764   -3.8137   -3.3918 O.3       1 <0>        -0.3071
     13 C10         6.4827   -4.2047   -4.6773 C.ar      1 <0>         0.0968
     14 C11         5.9940   -5.4256   -5.1190 C.ar      1 <0>        -0.1160
     15 C12         6.2050   -5.8207   -6.4258 C.ar      1 <0>        -0.1055
     16 C13         6.9025   -5.0006   -7.2933 C.ar      1 <0>        -0.1096
     17 C14         7.3910   -3.7835   -6.8553 C.ar      1 <0>        -0.1025
     18 C15         7.1773   -3.3811   -5.5511 C.ar      1 <0>        -0.1171
     19 O3          3.8156   -2.2405    0.6078 O.3       1 <0>        -0.2952
     20 C16         4.2606   -2.2497    1.8907 C.ar      1 <0>         0.2166
     21 C17         4.8326   -1.1187    2.4218 C.ar      1 <0>        -0.2209
     22 C18         5.2990   -1.0897    3.7287 C.ar      1 <0>         0.0053
     23 C19         5.1883   -2.2178    4.5173 C.ar      1 <0>        -0.1260
     24 C20         4.6169   -3.3608    4.0009 C.ar      1 <0>        -0.0393
     25 C21         4.1255   -3.4285    2.6761 C.ar      1 <0>        -0.1596
     26 C22         3.5670   -4.6632    2.3023 C.2       1 <0>         0.0347
     27 C23         3.5238   -5.6866    3.1954 C.2       1 <0>        -0.2890
     28 S1          4.2874   -4.9818    4.6460 S.3       1 <0>         0.1388
     29 C24         2.9878   -7.0435    3.0093 C.cat     1 <0>         0.6504
     30 N2          3.0333   -7.9226    4.0129 N.pl3     1 <0>        -0.7614
     31 N3          2.4556   -7.3959    1.8367 N.pl3     1 <0>        -0.7602
     32 H1          0.2872    2.5867    0.7744 H         1 <0>         0.1288
     33 H2          2.6093    3.2994    0.3701 H         1 <0>         0.1308
     34 H3          4.3561    1.6180   -0.0593 H         1 <0>         0.1277
     35 H4          1.4576   -1.4884    0.3125 H         1 <0>         0.1241
     36 H5         -0.2895    0.1931    0.7405 H         1 <0>         0.1272
     37 H6          5.0551   -0.6618    0.1177 H         1 <0>         0.1008
     38 H7          3.1186   -1.8312   -1.9316 H         1 <0>         0.0904
     39 H8          4.2946   -0.5308   -2.2389 H         1 <0>         0.1040
     40 H9          5.6801   -2.7513   -1.1775 H         1 <0>         0.4084
     41 H10         5.4494   -6.0667   -4.4417 H         1 <0>         0.1283
     42 H11         5.8250   -6.7713   -6.7701 H         1 <0>         0.1340
     43 H12         7.0664   -5.3113   -8.3145 H         1 <0>         0.1327
     44 H13         7.9359   -3.1447   -7.5346 H         1 <0>         0.1343
     45 H14         7.5549   -2.4282   -5.2108 H         1 <0>         0.1284
     46 H15         4.9215   -0.2337    1.8092 H         1 <0>         0.1485
     47 H16         5.7459   -0.1905    4.1263 H         1 <0>         0.1542
     48 H17         5.5488   -2.2046    5.5353 H         1 <0>         0.1488
     49 H18         3.1722   -4.7983    1.3062 H         1 <0>         0.1510
     50 H19         3.4199   -7.6665    4.8649 H         1 <0>         0.4447
     51 H20         2.4225   -6.7572    1.1075 H         1 <0>         0.4447
     52 H21         2.1020   -8.2908    1.7140 H         1 <0>         0.4367
     53 H22         2.6797   -8.8175    3.8902 H         1 <0>         0.4368
@<TRIPOS>BOND
     1    1    6 ar
     2    1    2 ar
     3    1   32 1
     4    2    3 ar
     5    2   33 1
     6    3    4 ar
     7    3   34 1
     8    4    5 ar
     9    4    7 1
    10    5    6 ar
    11    5   35 1
    12    6   36 1
    13    7    8 1
    14    7   19 1
    15    7   37 1
    16    8    9 1
    17    8   38 1
    18    8   39 1
    19    9   10 am
    20    9   40 1
    21   10   11 2
    22   10   12 1
    23   12   13 1
    24   13   18 ar
    25   13   14 ar
    26   14   15 ar
    27   14   41 1
    28   15   16 ar
    29   15   42 1
    30   16   17 ar
    31   16   43 1
    32   17   18 ar
    33   17   44 1
    34   18   45 1
    35   19   20 1
    36   20   25 ar
    37   20   21 ar
    38   21   22 ar
    39   21   46 1
    40   22   23 ar
    41   22   47 1
    42   23   24 ar
    43   23   48 1
    44   24   28 1
    45   24   25 ar
    46   25   26 1
    47   26   27 2
    48   26   49 1
    49   27   28 1
    50   27   29 1
    51   29   30 2
    52   29   31 1
    53   30   50 1
    54   30   53 1
    55   31   51 1
    56   31   52 1
@<TRIPOS>MOLECULE
CHEMBL597370__1
   53    56     0     0     0
SMALL
USER_CHARGES

@<TRIPOS>ATOM
      1 C1          0.0510    1.5145   -0.2226 C.ar      1 <0>        -0.1005
      2 C2          1.2706    2.1632   -0.1716 C.ar      1 <0>        -0.1141
      3 C3          2.4418    1.4305   -0.1238 C.ar      1 <0>        -0.1014
      4 C4          2.3934    0.0490   -0.1266 C.ar      1 <0>        -0.1345
      5 C5          1.1738   -0.5998   -0.1768 C.ar      1 <0>        -0.0901
      6 C6          0.0026    0.1330   -0.2260 C.ar      1 <0>        -0.1180
      7 C7          3.6702   -0.7498   -0.0756 C.3       1 <0>         0.1204
      8 C8          3.9124   -1.2334    1.3557 C.3       1 <0>         0.1479
      9 N1          5.2111   -1.9071    1.4303 N.am      1 <0>        -0.7091
     10 C9          5.6386   -2.4186    2.6017 C.2       1 <0>         0.6455
     11 O1          4.9467   -2.3209    3.5959 O.2       1 <0>        -0.5448
     12 O2          6.8326   -3.0379    2.6704 O.3       1 <0>        -0.3067
     13 C10         7.1774   -3.6309    3.8440 C.ar      1 <0>         0.0972
     14 C11         8.1087   -3.0304    4.6785 C.ar      1 <0>        -0.1133
     15 C12         8.4575   -3.6350    5.8707 C.ar      1 <0>        -0.1028
     16 C13         7.8791   -4.8377    6.2323 C.ar      1 <0>        -0.1101
     17 C14         6.9509   -5.4384    5.4021 C.ar      1 <0>        -0.1050
     18 C15         6.5942   -4.8347    4.2118 C.ar      1 <0>        -0.1203
     19 O3          3.5622   -1.8769   -0.9474 O.3       1 <0>        -0.2950
     20 C16         3.8613   -1.6747   -2.2563 C.ar      1 <0>         0.2173
     21 C17         4.1344   -0.4048   -2.7048 C.ar      1 <0>        -0.2218
     22 C18         4.4442   -0.1586   -4.0351 C.ar      1 <0>         0.0055
     23 C19         4.4807   -1.2079   -4.9320 C.ar      1 <0>        -0.1263
     24 C20         4.2098   -2.4882   -4.4995 C.ar      1 <0>        -0.0391
     25 C21         3.8951   -2.7802   -3.1515 C.ar      1 <0>        -0.1600
     26 C22         3.6496   -4.1353   -2.8696 C.2       1 <0>         0.0350
     27 C23         3.7281   -5.0601   -3.8622 C.2       1 <0>        -0.2892
     28 S1          4.1481   -4.0764   -5.2906 S.3       1 <0>         0.1387
     29 C24         3.5116   -6.5125   -3.7810 C.cat     1 <0>         0.6505
     30 N2          3.6343   -7.2679   -4.8749 N.pl3     1 <0>        -0.7614
     31 N3          3.1924   -7.0756   -2.6134 N.pl3     1 <0>        -0.7603
     32 H1         -0.8642    2.0869   -0.2554 H         1 <0>         0.1290
     33 H2          1.3084    3.2426   -0.1694 H         1 <0>         0.1308
     34 H3          3.3947    1.9374   -0.0846 H         1 <0>         0.1274
     35 H4          1.1360   -1.6791   -0.1793 H         1 <0>         0.1243
     36 H5         -0.9502   -0.3739   -0.2655 H         1 <0>         0.1275
     37 H6          4.5037   -0.1233   -0.3933 H         1 <0>         0.1005
     38 H7          3.9063   -0.3799    2.0335 H         1 <0>         0.1044
     39 H8          3.1246   -1.9303    1.6418 H         1 <0>         0.0908
     40 H9          5.7634   -1.9851    0.6367 H         1 <0>         0.4084
     41 H10         8.5610   -2.0912    4.3963 H         1 <0>         0.1324
     42 H11         9.1828   -3.1681    6.5205 H         1 <0>         0.1358
     43 H12         8.1531   -5.3089    7.1647 H         1 <0>         0.1326
     44 H13         6.5008   -6.3780    5.6866 H         1 <0>         0.1324
     45 H14         5.8656   -5.3019    3.5659 H         1 <0>         0.1244
     46 H15         4.1072    0.4193   -2.0073 H         1 <0>         0.1483
     47 H16         4.6550    0.8473   -4.3668 H         1 <0>         0.1543
     48 H17         4.7205   -1.0258   -5.9692 H         1 <0>         0.1488
     49 H18         3.3992   -4.4413   -1.8645 H         1 <0>         0.1509
     50 H19         3.8663   -6.8588   -5.7233 H         1 <0>         0.4447
     51 H20         3.1032   -6.5268   -1.8186 H         1 <0>         0.4447
     52 H21         3.0496   -8.0336   -2.5598 H         1 <0>         0.4368
     53 H22         3.4916   -8.2258   -4.8214 H         1 <0>         0.4368
@<TRIPOS>BOND
     1    1    6 ar
     2    1    2 ar
     3    1   32 1
     4    2    3 ar
     5    2   33 1
     6    3    4 ar
     7    3   34 1
     8    4    5 ar
     9    4    7 1
    10    5    6 ar
    11    5   35 1
    12    6   36 1
    13    7    8 1
    14    7   19 1
    15    7   37 1
    16    8    9 1
    17    8   38 1
    18    8   39 1
    19    9   10 am
    20    9   40 1
    21   10   11 2
    22   10   12 1
    23   12   13 1
    24   13   18 ar
    25   13   14 ar
    26   14   15 ar
    27   14   41 1
    28   15   16 ar
    29   15   42 1
    30   16   17 ar
    31   16   43 1
    32   17   18 ar
    33   17   44 1
    34   18   45 1
    35   19   20 1
    36   20   25 ar
    37   20   21 ar
    38   21   22 ar
    39   21   46 1
    40   22   23 ar
    41   22   47 1
    42   23   24 ar
    43   23   48 1
    44   24   28 1
    45   24   25 ar
    46   25   26 1
    47   26   27 2
    48   26   49 1
    49   27   28 1
    50   27   29 1
    51   29   30 2
    52   29   31 1
    53   30   50 1
    54   30   53 1
    55   31   51 1
    56   31   52 1
@<TRIPOS>MOLECULE
CHEMBL597570
   54    57     0     0     0
SMALL
USER_CHARGES

@<TRIPOS>ATOM
      1 C1          1.1771    2.4562    0.2318 C.ar      1 <0>        -0.1017
      2 C2          2.5131    2.7287    0.0046 C.ar      1 <0>        -0.1139
      3 C3          3.4191    1.6918   -0.1167 C.ar      1 <0>        -0.1023
      4 C4          2.9892    0.3823   -0.0103 C.ar      1 <0>        -0.1335
      5 C5          1.6533    0.1098    0.2178 C.ar      1 <0>        -0.0916
      6 C6          0.7470    1.1467    0.3377 C.ar      1 <0>        -0.1179
      7 C7          3.9767   -0.7482   -0.1436 C.3       1 <0>         0.1206
      8 C8          3.9835   -1.2519   -1.5883 C.3       1 <0>         0.1497
      9 N1          4.9435   -2.3509   -1.7178 N.am      1 <0>        -0.7433
     10 C9          5.1202   -2.9544   -2.9098 C.2       1 <0>         0.7042
     11 O1          4.4827   -2.5868   -3.8778 O.2       1 <0>        -0.5624
     12 N2          6.0034   -3.9655   -3.0290 N.am      1 <0>        -0.6846
     13 C10         6.2755   -4.5121   -4.2882 C.ar      1 <0>         0.1577
     14 C11         6.5660   -5.8644   -4.4117 C.ar      1 <0>        -0.1485
     15 C12         6.8337   -6.4009   -5.6558 C.ar      1 <0>        -0.0996
     16 C13         6.8127   -5.5930   -6.7779 C.ar      1 <0>        -0.1323
     17 C14         6.5243   -4.2459   -6.6582 C.ar      1 <0>        -0.0980
     18 C15         6.2501   -3.7044   -5.4175 C.ar      1 <0>        -0.1195
     19 O2          3.6012   -1.8143    0.7308 O.3       1 <0>        -0.2946
     20 C16         4.0150   -1.7280    2.0212 C.ar      1 <0>         0.2168
     21 C17         4.6604   -0.5953    2.4557 C.ar      1 <0>        -0.2213
     22 C18         5.0980   -0.4703    3.7669 C.ar      1 <0>         0.0055
     23 C19         4.8829   -1.5022    4.6588 C.ar      1 <0>        -0.1267
     24 C20         4.2368   -2.6455    4.2402 C.ar      1 <0>        -0.0394
     25 C21         3.7717   -2.8088    2.9142 C.ar      1 <0>        -0.1606
     26 C22         3.1282   -4.0297    2.6469 C.2       1 <0>         0.0345
     27 C23         2.9860   -4.9524    3.6344 C.2       1 <0>        -0.2893
     28 S1          3.7688   -4.1645    5.0311 S.3       1 <0>         0.1384
     29 C24         2.3512   -6.2773    3.5664 C.cat     1 <0>         0.6502
     30 N3          2.3062   -7.0524    4.6524 N.pl3     1 <0>        -0.7614
     31 N4          1.8201   -6.7049    2.4186 N.pl3     1 <0>        -0.7602
     32 H1          0.4700    3.2665    0.3310 H         1 <0>         0.1286
     33 H2          2.8490    3.7518   -0.0785 H         1 <0>         0.1305
     34 H3          4.4628    1.9047   -0.2949 H         1 <0>         0.1270
     35 H4          1.3173   -0.9133    0.3005 H         1 <0>         0.1234
     36 H5         -0.2967    0.9338    0.5155 H         1 <0>         0.1268
     37 H6          4.9726   -0.3939    0.1223 H         1 <0>         0.0981
     38 H7          2.9876   -1.6062   -1.8542 H         1 <0>         0.0860
     39 H8          4.2699   -0.4387   -2.2552 H         1 <0>         0.0997
     40 H9          5.4520   -2.6442   -0.9456 H         1 <0>         0.3973
     41 H10         6.4504   -4.3143   -2.2419 H         1 <0>         0.4051
     42 H11         6.5829   -6.4959   -3.5357 H         1 <0>         0.1220
     43 H12         7.0600   -7.4525   -5.7525 H         1 <0>         0.1274
     44 H13         7.0224   -6.0149   -7.7497 H         1 <0>         0.1259
     45 H14         6.5091   -3.6174   -7.5364 H         1 <0>         0.1278
     46 H15         6.0202   -2.6532   -5.3253 H         1 <0>         0.1347
     47 H16         4.8311    0.2148    1.7621 H         1 <0>         0.1484
     48 H17         5.6039    0.4284    4.0875 H         1 <0>         0.1540
     49 H18         5.2202   -1.4140    5.6809 H         1 <0>         0.1487
     50 H19         2.7468   -4.2341    1.6574 H         1 <0>         0.1507
     51 H20         1.8875   -7.9262    4.6076 H         1 <0>         0.4369
     52 H21         1.8529   -6.1417    1.6295 H         1 <0>         0.4447
     53 H22         1.4014   -7.5787    2.3738 H         1 <0>         0.4368
     54 H23         2.6921   -6.7417    5.4863 H         1 <0>         0.4447
@<TRIPOS>BOND
     1    1    6 ar
     2    1    2 ar
     3    1   32 1
     4    2    3 ar
     5    2   33 1
     6    3    4 ar
     7    3   34 1
     8    4    5 ar
     9    4    7 1
    10    5    6 ar
    11    5   35 1
    12    6   36 1
    13    7    8 1
    14    7   19 1
    15    7   37 1
    16    8    9 1
    17    8   38 1
    18    8   39 1
    19    9   10 am
    20    9   40 1
    21   10   11 2
    22   10   12 am
    23   12   13 1
    24   12   41 1
    25   13   18 ar
    26   13   14 ar
    27   14   15 ar
    28   14   42 1
    29   15   16 ar
    30   15   43 1
    31   16   17 ar
    32   16   44 1
    33   17   18 ar
    34   17   45 1
    35   18   46 1
    36   19   20 1
    37   20   25 ar
    38   20   21 ar
    39   21   22 ar
    40   21   47 1
    41   22   23 ar
    42   22   48 1
    43   23   24 ar
    44   23   49 1
    45   24   28 1
    46   24   25 ar
    47   25   26 1
    48   26   27 2
    49   26   50 1
    50   27   28 1
    51   27   29 1
    52   29   30 2
    53   29   31 1
    54   30   51 1
    55   30   54 1
    56   31   52 1
    57   31   53 1
@<TRIPOS>MOLECULE
CHEMBL597570__1
   54    57     0     0     0
SMALL
USER_CHARGES

@<TRIPOS>ATOM
      1 C1          0.4860    1.4259   -0.2635 C.ar      1 <0>        -0.1013
      2 C2          1.7059    2.0761   -0.2533 C.ar      1 <0>        -0.1143
      3 C3          2.8774    1.3463   -0.1770 C.ar      1 <0>        -0.1022
      4 C4          2.8291   -0.0336   -0.1105 C.ar      1 <0>        -0.1335
      5 C5          1.6092   -0.6837   -0.1198 C.ar      1 <0>        -0.0905
      6 C6          0.4377    0.0460   -0.1975 C.ar      1 <0>        -0.1181
      7 C7          4.1063   -0.8292   -0.0283 C.3       1 <0>         0.1202
      8 C8          4.3582   -1.2408    1.4236 C.3       1 <0>         0.1494
      9 N1          5.6575   -1.9103    1.5230 N.am      1 <0>        -0.7442
     10 C9          6.0930   -2.3627    2.7155 C.2       1 <0>         0.7045
     11 O1          5.4076   -2.2152    3.7089 O.2       1 <0>        -0.5627
     12 N2          7.2884   -2.9785    2.8069 N.am      1 <0>        -0.6853
     13 C10         7.6906   -3.5491    4.0198 C.ar      1 <0>         0.1571
     14 C11         9.0286   -3.5246    4.3904 C.ar      1 <0>        -0.1458
     15 C12         9.4223   -4.0882    5.5883 C.ar      1 <0>        -0.0987
     16 C13         8.4856   -4.6764    6.4182 C.ar      1 <0>        -0.1318
     17 C14         7.1525   -4.7029    6.0518 C.ar      1 <0>        -0.1003
     18 C15         6.7516   -4.1360    4.8579 C.ar      1 <0>        -0.1196
     19 O2          3.9923   -1.9984   -0.8419 O.3       1 <0>        -0.2942
     20 C16         4.2844   -1.8624   -2.1610 C.ar      1 <0>         0.2177
     21 C17         4.5619   -0.6176   -2.6728 C.ar      1 <0>        -0.2226
     22 C18         4.8647   -0.4389   -4.0154 C.ar      1 <0>         0.0055
     23 C19         4.8898   -1.5310   -4.8600 C.ar      1 <0>        -0.1270
     24 C20         4.6145   -2.7870   -4.3635 C.ar      1 <0>        -0.0391
     25 C21         4.3065   -3.0107   -3.0010 C.ar      1 <0>        -0.1608
     26 C22         4.0553   -4.3489   -2.6514 C.2       1 <0>         0.0350
     27 C23         4.1224   -5.3217   -3.5980 C.2       1 <0>        -0.2895
     28 S1          4.5391   -4.4117   -5.0753 S.3       1 <0>         0.1382
     29 C24         3.8984   -6.7671   -3.4443 C.cat     1 <0>         0.6502
     30 N3          4.0102   -7.5759   -4.5005 N.pl3     1 <0>        -0.7615
     31 N4          3.5833   -7.2703   -2.2486 N.pl3     1 <0>        -0.7601
     32 H1         -0.4295    1.9963   -0.3186 H         1 <0>         0.1287
     33 H2          1.7436    3.1542   -0.3053 H         1 <0>         0.1304
     34 H3          3.8305    1.8542   -0.1697 H         1 <0>         0.1265
     35 H4          1.5714   -1.7618   -0.0682 H         1 <0>         0.1238
     36 H5         -0.5154   -0.4620   -0.2052 H         1 <0>         0.1272
     37 H6          4.9375   -0.2196   -0.3826 H         1 <0>         0.0977
     38 H7          4.3567   -0.3544    2.0580 H         1 <0>         0.0998
     39 H8          3.5725   -1.9223    1.7496 H         1 <0>         0.0864
     40 H9          6.2043   -2.0279    0.7305 H         1 <0>         0.3971
     41 H10         7.8699   -3.0263    2.0320 H         1 <0>         0.4056
     42 H11         9.7607   -3.0657    3.7425 H         1 <0>         0.1246
     43 H12        10.4629   -4.0698    5.8770 H         1 <0>         0.1285
     44 H13         8.7960   -5.1165    7.3544 H         1 <0>         0.1258
     45 H14         6.4234   -5.1634    6.7020 H         1 <0>         0.1267
     46 H15         5.7096   -4.1527    4.5745 H         1 <0>         0.1317
     47 H16         4.5435    0.2398   -2.0165 H         1 <0>         0.1481
     48 H17         5.0790    0.5484   -4.3973 H         1 <0>         0.1540
     49 H18         5.1241   -1.4015   -5.9063 H         1 <0>         0.1487
     50 H19         3.8094   -4.6038   -1.6312 H         1 <0>         0.1508
     51 H20         3.8624   -8.5292   -4.3992 H         1 <0>         0.4369
     52 H21         3.5021   -6.6827   -1.4811 H         1 <0>         0.4447
     53 H22         3.4356   -8.2237   -2.1472 H         1 <0>         0.4368
     54 H23         4.2391   -7.2102   -5.3693 H         1 <0>         0.4447
@<TRIPOS>BOND
     1    1    6 ar
     2    1    2 ar
     3    1   32 1
     4    2    3 ar
     5    2   33 1
     6    3    4 ar
     7    3   34 1
     8    4    5 ar
     9    4    7 1
    10    5    6 ar
    11    5   35 1
    12    6   36 1
    13    7    8 1
    14    7   19 1
    15    7   37 1
    16    8    9 1
    17    8   38 1
    18    8   39 1
    19    9   10 am
    20    9   40 1
    21   10   11 2
    22   10   12 am
    23   12   13 1
    24   12   41 1
    25   13   18 ar
    26   13   14 ar
    27   14   15 ar
    28   14   42 1
    29   15   16 ar
    30   15   43 1
    31   16   17 ar
    32   16   44 1
    33   17   18 ar
    34   17   45 1
    35   18   46 1
    36   19   20 1
    37   20   25 ar
    38   20   21 ar
    39   21   22 ar
    40   21   47 1
    41   22   23 ar
    42   22   48 1
    43   23   24 ar
    44   23   49 1
    45   24   28 1
    46   24   25 ar
    47   25   26 1
    48   26   27 2
    49   26   50 1
    50   27   28 1
    51   27   29 1
    52   29   30 2
    53   29   31 1
    54   30   51 1
    55   30   54 1
    56   31   52 1
    57   31   53 1
@<TRIPOS>MOLECULE
CHEMBL64654
   45    48     0     0     0
SMALL
USER_CHARGES

@<TRIPOS>ATOM
      1 C1         -0.0173    1.3528    0.0514 C.ar      1 <0>        -0.1155
      2 C2          1.1594    2.1024    0.0448 C.ar      1 <0>        -0.1061
      3 C3          2.3818    1.5120    0.0248 C.ar      1 <0>        -0.1113
      4 C4          2.4750    0.1040    0.0101 C.ar      1 <0>        -0.0340
      5 C5          3.7141   -0.5349   -0.0101 C.ar      1 <0>        -0.0978
      6 C6          3.7718   -1.9271   -0.0238 C.ar      1 <0>        -0.0181
      7 C7          5.0134   -2.5981   -0.0437 C.ar      1 <0>        -0.1417
      8 C8          5.0493   -3.9572   -0.0565 C.ar      1 <0>         0.1582
      9 C9          3.8637   -4.7255   -0.0508 C.ar      1 <0>        -0.1535
     10 C10         2.6211   -4.1216   -0.0315 C.ar      1 <0>        -0.0409
     11 C11         2.5341   -2.7160   -0.0172 C.ar      1 <0>        -0.0714
     12 C12         1.2943   -2.0764    0.0030 C.ar      1 <0>        -0.0705
     13 C13         1.2382   -0.6840    0.0168 C.ar      1 <0>        -0.0566
     14 C14         0.0011   -0.0046    0.0379 C.ar      1 <0>        -0.1026
     15 C15         3.9540   -6.1979   -0.0662 C.2       1 <0>         0.5569
     16 O1          5.0423   -6.7402   -0.0837 O.2       1 <0>        -0.4975
     17 N1          2.8303   -6.9420   -0.0610 N.am      1 <0>        -0.6657
     18 C16         2.9126   -8.3357   -0.1749 C.ar      1 <0>         0.0623
     19 C17         3.9736   -9.0292    0.4088 C.ar      1 <0>        -0.0578
     20 C18         4.0173  -10.4024    0.2731 C.ar      1 <0>        -0.1760
     21 C19         3.0031  -11.0483   -0.4404 C.ar      1 <0>         0.3389
     22 N2          2.0087  -10.3528   -0.9821 N.ar      1 <0>        -0.4935
     23 C20         1.9376   -9.0412   -0.8640 C.ar      1 <0>         0.1001
     24 N3          3.0350  -12.4068   -0.5824 N.2       1 <0>        -0.6309
     25 C21         2.3661  -13.1707    0.2523 C.2       1 <0>         0.6741
     26 N4          1.7209  -12.6124    1.3258 N.pl3     1 <0>        -0.8792
     27 N5          2.3136  -14.5258    0.0497 N.pl3     1 <0>        -0.8374
     28 O2          6.2503   -4.5896   -0.0755 O.3       1 <0>        -0.4778
     29 H1         -0.9676    1.8657    0.0721 H         1 <0>         0.1248
     30 H2          1.0961    3.1805    0.0557 H         1 <0>         0.1249
     31 H3          3.2771    2.1161    0.0198 H         1 <0>         0.1313
     32 H4          4.6244    0.0462   -0.0154 H         1 <0>         0.1376
     33 H5          5.9336   -2.0328   -0.0491 H         1 <0>         0.1426
     34 H6          1.7237   -4.7226   -0.0278 H         1 <0>         0.1373
     35 H7          0.3836   -2.6569    0.0075 H         1 <0>         0.1383
     36 H8         -0.9245   -0.5609    0.0437 H         1 <0>         0.1310
     37 H9          1.9645   -6.5125    0.0216 H         1 <0>         0.4083
     38 H10         4.7433   -8.5034    0.9542 H         1 <0>         0.1471
     39 H11         4.8245  -10.9702    0.7120 H         1 <0>         0.1339
     40 H12         1.1120   -8.5093   -1.3134 H         1 <0>         0.1541
     41 H13         1.6967  -11.6483    1.4293 H         1 <0>         0.4117
     42 H14         2.7700  -14.9207   -0.7097 H         1 <0>         0.4230
     43 H15         1.8200  -15.0895    0.6657 H         1 <0>         0.4083
     44 H16         6.6081   -4.7809    0.8023 H         1 <0>         0.3942
     45 H17         1.2888  -13.1817    1.9816 H         1 <0>         0.3974
@<TRIPOS>BOND
     1    1   14 ar
     2    1    2 ar
     3    1   29 1
     4    2    3 ar
     5    2   30 1
     6    3    4 ar
     7    3   31 1
     8    4   13 ar
     9    4    5 ar
    10    5    6 ar
    11    5   32 1
    12    6   11 ar
    13    6    7 ar
    14    7    8 ar
    15    7   33 1
    16    8    9 ar
    17    8   28 1
    18    9   10 ar
    19    9   15 1
    20   10   11 ar
    21   10   34 1
    22   11   12 ar
    23   12   13 ar
    24   12   35 1
    25   13   14 ar
    26   14   36 1
    27   15   16 2
    28   15   17 am
    29   17   18 1
    30   17   37 1
    31   18   23 ar
    32   18   19 ar
    33   19   20 ar
    34   19   38 1
    35   20   21 ar
    36   20   39 1
    37   21   22 ar
    38   21   24 1
    39   22   23 ar
    40   23   40 1
    41   24   25 2
    42   25   26 1
    43   25   27 1
    44   26   41 1
    45   26   45 1
    46   27   42 1
    47   27   43 1
    48   28   44 1
@<TRIPOS>MOLECULE
CHEMBL64654__1
   46    49     0     0     0
SMALL
USER_CHARGES

@<TRIPOS>ATOM
      1 C1         -0.0814    1.3298    0.2439 C.ar      1 <0>        -0.1095
      2 C2          1.0918    2.0846    0.2291 C.ar      1 <0>        -0.1014
      3 C3          2.3164    1.5000    0.1847 C.ar      1 <0>        -0.1119
      4 C4          2.4154    0.0926    0.1526 C.ar      1 <0>        -0.0304
      5 C5          3.6567   -0.5405    0.1074 C.ar      1 <0>        -0.0945
      6 C6          3.7201   -1.9322    0.0770 C.ar      1 <0>        -0.0193
      7 C7          4.9642   -2.5975    0.0317 C.ar      1 <0>        -0.1326
      8 C8          5.0057   -3.9562    0.0029 C.ar      1 <0>         0.1514
      9 C9          3.8236   -4.7297    0.0168 C.ar      1 <0>        -0.1640
     10 C10         2.5788   -4.1316    0.0604 C.ar      1 <0>        -0.0339
     11 C11         2.4861   -2.7266    0.0924 C.ar      1 <0>        -0.0755
     12 C12         1.2440   -2.0928    0.1372 C.ar      1 <0>        -0.0701
     13 C13         1.1822   -0.7009    0.1681 C.ar      1 <0>        -0.0535
     14 C14        -0.0574   -0.0273    0.2147 C.ar      1 <0>        -0.1058
     15 C15         3.9199   -6.2014   -0.0162 C.2       1 <0>         0.5661
     16 O1          5.0102   -6.7387   -0.0550 O.2       1 <0>        -0.4914
     17 N1          2.7996   -6.9505   -0.0033 N.am      1 <0>        -0.6711
     18 C16         2.8867   -8.3429   -0.1269 C.ar      1 <0>         0.1136
     19 C17         3.9561   -9.0361    0.4385 C.ar      1 <0>        -0.0328
     20 C18         4.0011  -10.4104    0.2921 C.ar      1 <0>        -0.1445
     21 C19         2.9856  -11.0510   -0.4091 C.ar      1 <0>         0.3192
     22 N2          1.9856  -10.3610   -0.9331 N.ar      1 <0>        -0.5130
     23 C20         1.9073   -9.0500   -0.8082 C.ar      1 <0>         0.1208
     24 N3          3.0219  -12.4375   -0.5625 N.pl3     1 <0>        -0.6250
     25 C21         2.1019  -13.0626   -1.3630 C.cat     1 <0>         0.7431
     26 N4          2.2029  -14.3696   -1.5986 N.pl3     1 <0>        -0.7949
     27 N5          1.1067  -12.3632   -1.9056 N.pl3     1 <0>        -0.7708
     28 O2          6.2090   -4.5830   -0.0406 O.3       1 <0>        -0.4791
     29 H1         -1.0334    1.8382    0.2842 H         1 <0>         0.1276
     30 H2          1.0242    3.1623    0.2531 H         1 <0>         0.1281
     31 H3          3.2089    2.1080    0.1738 H         1 <0>         0.1339
     32 H4          4.5644    0.0446    0.0957 H         1 <0>         0.1401
     33 H5          5.8818   -2.0281    0.0195 H         1 <0>         0.1448
     34 H6          1.6842   -4.7365    0.0697 H         1 <0>         0.1354
     35 H7          0.3359   -2.6773    0.1486 H         1 <0>         0.1384
     36 H8         -0.9805   -0.5877    0.2274 H         1 <0>         0.1322
     37 H9          1.9329   -6.5253    0.0915 H         1 <0>         0.4180
     38 H10         4.7312   -8.5120    0.9778 H         1 <0>         0.1713
     39 H11         4.8151  -10.9790    0.7169 H         1 <0>         0.1590
     40 H12         1.0734   -8.5209   -1.2453 H         1 <0>         0.1823
     41 H13         3.6982  -12.9588   -0.1024 H         1 <0>         0.4514
     42 H14         2.9277  -14.8790   -1.2034 H         1 <0>         0.4391
     43 H15         1.0821  -11.3985   -1.8073 H         1 <0>         0.4455
     44 H16         0.4066  -12.8185   -2.3989 H         1 <0>         0.4266
     45 H17         6.5802   -4.7826    0.8298 H         1 <0>         0.3943
     46 H18         1.5518  -14.8120   -2.1652 H         1 <0>         0.4428
@<TRIPOS>BOND
     1    1   14 ar
     2    1    2 ar
     3    1   29 1
     4    2    3 ar
     5    2   30 1
     6    3    4 ar
     7    3   31 1
     8    4   13 ar
     9    4    5 ar
    10    5    6 ar
    11    5   32 1
    12    6   11 ar
    13    6    7 ar
    14    7    8 ar
    15    7   33 1
    16    8    9 ar
    17    8   28 1
    18    9   10 ar
    19    9   15 1
    20   10   11 ar
    21   10   34 1
    22   11   12 ar
    23   12   13 ar
    24   12   35 1
    25   13   14 ar
    26   14   36 1
    27   15   16 2
    28   15   17 am
    29   17   18 1
    30   17   37 1
    31   18   23 ar
    32   18   19 ar
    33   19   20 ar
    34   19   38 1
    35   20   21 ar
    36   20   39 1
    37   21   22 ar
    38   21   24 1
    39   22   23 ar
    40   23   40 1
    41   24   25 1
    42   24   41 1
    43   25   26 2
    44   25   27 1
    45   26   42 1
    46   26   46 1
    47   27   43 1
    48   27   44 1
    49   28   45 1
@<TRIPOS>MOLECULE
CHEMBL64654__2
   45    48     0     0     0
SMALL
USER_CHARGES

@<TRIPOS>ATOM
      1 C1         -0.0091    1.3549    0.0470 C.ar      1 <0>        -0.1159
      2 C2          1.1681    2.1039    0.0397 C.ar      1 <0>        -0.1060
      3 C3          2.3901    1.5128    0.0194 C.ar      1 <0>        -0.1116
      4 C4          2.4825    0.1046    0.0052 C.ar      1 <0>        -0.0339
      5 C5          3.7212   -0.5350   -0.0152 C.ar      1 <0>        -0.0984
      6 C6          3.7780   -1.9272   -0.0284 C.ar      1 <0>        -0.0180
      7 C7          5.0192   -2.5990   -0.0485 C.ar      1 <0>        -0.1422
      8 C8          5.0544   -3.9581   -0.0608 C.ar      1 <0>         0.1583
      9 C9          3.8683   -4.7257   -0.0539 C.ar      1 <0>        -0.1540
     10 C10         2.6260   -4.1211   -0.0344 C.ar      1 <0>        -0.0403
     11 C11         2.5399   -2.7154   -0.0210 C.ar      1 <0>        -0.0716
     12 C12         1.3005   -2.0751   -0.0006 C.ar      1 <0>        -0.0700
     13 C13         1.2453   -0.6826    0.0127 C.ar      1 <0>        -0.0569
     14 C14         0.0086   -0.0025    0.0340 C.ar      1 <0>        -0.1022
     15 C15         3.9577   -6.1982   -0.0683 C.2       1 <0>         0.5575
     16 O1          5.0457   -6.7411   -0.0860 O.2       1 <0>        -0.5002
     17 N1          2.8336   -6.9416   -0.0620 N.am      1 <0>        -0.6640
     18 C16         2.9150   -8.3354   -0.1746 C.ar      1 <0>         0.0519
     19 C17         3.9744   -9.0298    0.4079 C.ar      1 <0>        -0.0451
     20 C18         4.0145  -10.4051    0.2714 C.ar      1 <0>        -0.1971
     21 C19         3.0040  -11.0458   -0.4374 C.ar      1 <0>         0.3706
     22 N2          2.0134  -10.3545   -0.9777 N.ar      1 <0>        -0.4321
     23 C20         1.9399   -9.0423   -0.8621 C.ar      1 <0>         0.1151
     24 N3          3.0352  -12.4328   -0.5808 N.pl3     1 <0>        -0.6440
     25 C21         2.0980  -13.0650   -1.3672 C.2       1 <0>         0.6079
     26 N4          1.1240  -12.3806   -1.8976 N.2       1 <0>        -0.7448
     27 N5          2.1899  -14.4182   -1.5927 N.pl3     1 <0>        -0.8999
     28 O2          6.2550   -4.5912   -0.0805 O.3       1 <0>        -0.4780
     29 H1         -0.9590    1.8684    0.0679 H         1 <0>         0.1247
     30 H2          1.1055    3.1820    0.0502 H         1 <0>         0.1247
     31 H3          3.2858    2.1163    0.0138 H         1 <0>         0.1311
     32 H4          4.6319    0.0456   -0.0210 H         1 <0>         0.1374
     33 H5          5.9398   -2.0342   -0.0545 H         1 <0>         0.1422
     34 H6          1.7284   -4.7215   -0.0297 H         1 <0>         0.1379
     35 H7          0.3894   -2.6550    0.0045 H         1 <0>         0.1387
     36 H8         -0.9174   -0.5582    0.0403 H         1 <0>         0.1311
     37 H9          1.9681   -6.5115    0.0206 H         1 <0>         0.4090
     38 H10         4.7457   -8.5057    0.9526 H         1 <0>         0.1505
     39 H11         4.8207  -10.9748    0.7095 H         1 <0>         0.1362
     40 H12         1.1137   -8.5121   -1.3124 H         1 <0>         0.1577
     41 H13         3.7170  -12.9522   -0.1266 H         1 <0>         0.4203
     42 H14         0.4639  -12.8259   -2.4515 H         1 <0>         0.3318
     43 H15         2.9149  -14.9276   -1.1979 H         1 <0>         0.3882
     44 H16         1.5298  -14.8635   -2.1467 H         1 <0>         0.4095
     45 H17         6.6133   -4.7824    0.7971 H         1 <0>         0.3940
@<TRIPOS>BOND
     1    1   14 ar
     2    1    2 ar
     3    1   29 1
     4    2    3 ar
     5    2   30 1
     6    3    4 ar
     7    3   31 1
     8    4   13 ar
     9    4    5 ar
    10    5    6 ar
    11    5   32 1
    12    6   11 ar
    13    6    7 ar
    14    7    8 ar
    15    7   33 1
    16    8    9 ar
    17    8   28 1
    18    9   10 ar
    19    9   15 1
    20   10   11 ar
    21   10   34 1
    22   11   12 ar
    23   12   13 ar
    24   12   35 1
    25   13   14 ar
    26   14   36 1
    27   15   16 2
    28   15   17 am
    29   17   18 1
    30   17   37 1
    31   18   23 ar
    32   18   19 ar
    33   19   20 ar
    34   19   38 1
    35   20   21 ar
    36   20   39 1
    37   21   22 ar
    38   21   24 1
    39   22   23 ar
    40   23   40 1
    41   24   25 1
    42   24   41 1
    43   25   26 2
    44   25   27 1
    45   26   42 1
    46   27   43 1
    47   27   44 1
    48   28   45 1
@<TRIPOS>MOLECULE
CHEMBL64654__3
   45    48     0     0     0
SMALL
USER_CHARGES

@<TRIPOS>ATOM
      1 C1         -0.0634    1.3359    0.2079 C.ar      1 <0>        -0.1148
      2 C2          1.1108    2.0892    0.1944 C.ar      1 <0>        -0.1052
      3 C3          2.3347    1.5028    0.1542 C.ar      1 <0>        -0.1117
      4 C4          2.4320    0.0953    0.1250 C.ar      1 <0>        -0.0333
      5 C5          3.6726   -0.5395    0.0841 C.ar      1 <0>        -0.0976
      6 C6          3.7343   -1.9313    0.0565 C.ar      1 <0>        -0.0181
      7 C7          4.9776   -2.5983    0.0154 C.ar      1 <0>        -0.1404
      8 C8          5.0175   -3.9571   -0.0106 C.ar      1 <0>         0.1571
      9 C9          3.8344   -4.7290    0.0025 C.ar      1 <0>        -0.1556
     10 C10         2.5902   -4.1293    0.0423 C.ar      1 <0>        -0.0391
     11 C11         2.4992   -2.7241    0.0705 C.ar      1 <0>        -0.0723
     12 C12         1.2578   -2.0886    0.1115 C.ar      1 <0>        -0.0700
     13 C13         1.1977   -0.6966    0.1391 C.ar      1 <0>        -0.0563
     14 C14        -0.0410   -0.0213    0.1814 C.ar      1 <0>        -0.1028
     15 C15         3.9289   -6.2010   -0.0274 C.2       1 <0>         0.5593
     16 O1          5.0185   -6.7397   -0.0630 O.2       1 <0>        -0.4978
     17 N1          2.8075   -6.9486   -0.0154 N.am      1 <0>        -0.6653
     18 C16         2.8931   -8.3414   -0.1363 C.ar      1 <0>         0.0577
     19 C17         3.9606   -9.0349    0.4322 C.ar      1 <0>        -0.0292
     20 C18         4.0045  -10.4094    0.2879 C.ar      1 <0>        -0.1929
     21 C19         2.9897  -11.0501   -0.4146 C.ar      1 <0>         0.3712
     22 N2          1.9914  -10.3596   -0.9416 N.ar      1 <0>        -0.5132
     23 C20         1.9141   -9.0484   -0.8183 C.ar      1 <0>         0.1257
     24 N3          3.0247  -12.4362   -0.5658 N.pl3     1 <0>        -0.6820
     25 C21         2.0980  -13.0650   -1.3672 C.2       1 <0>         0.6373
     26 N4          2.1951  -14.3444   -1.5951 N.2       1 <0>        -0.8191
     27 N5          1.0704  -12.3429   -1.9268 N.pl3     1 <0>        -0.8401
     28 O2          6.2201   -4.5855   -0.0504 O.3       1 <0>        -0.4782
     29 H1         -1.0149    1.8456    0.2449 H         1 <0>         0.1252
     30 H2          1.0445    3.1669    0.2162 H         1 <0>         0.1253
     31 H3          3.2281    2.1097    0.1441 H         1 <0>         0.1316
     32 H4          4.5811    0.0445    0.0734 H         1 <0>         0.1379
     33 H5          5.8960   -2.0301    0.0044 H         1 <0>         0.1428
     34 H6          1.6948   -4.7331    0.0515 H         1 <0>         0.1374
     35 H7          0.3489   -2.6719    0.1215 H         1 <0>         0.1386
     36 H8         -0.9649   -0.5805    0.1929 H         1 <0>         0.1313
     37 H9          1.9412   -6.5221    0.0771 H         1 <0>         0.4107
     38 H10         4.7352   -8.5109    0.9724 H         1 <0>         0.1556
     39 H11         4.8171  -10.9783    0.7152 H         1 <0>         0.1437
     40 H12         1.0817   -8.5189   -1.2577 H         1 <0>         0.1670
     41 H13         3.7018  -12.9572   -0.1065 H         1 <0>         0.4248
     42 H14         1.0456  -11.3783   -1.8283 H         1 <0>         0.4194
     43 H15         0.3702  -12.7982   -2.4202 H         1 <0>         0.4025
     44 H16         6.5892   -4.7839    0.8211 H         1 <0>         0.3943
     45 H17         2.9200  -14.8538   -1.2003 H         1 <0>         0.3385
@<TRIPOS>BOND
     1    1   14 ar
     2    1    2 ar
     3    1   29 1
     4    2    3 ar
     5    2   30 1
     6    3    4 ar
     7    3   31 1
     8    4   13 ar
     9    4    5 ar
    10    5    6 ar
    11    5   32 1
    12    6   11 ar
    13    6    7 ar
    14    7    8 ar
    15    7   33 1
    16    8    9 ar
    17    8   28 1
    18    9   10 ar
    19    9   15 1
    20   10   11 ar
    21   10   34 1
    22   11   12 ar
    23   12   13 ar
    24   12   35 1
    25   13   14 ar
    26   14   36 1
    27   15   16 2
    28   15   17 am
    29   17   18 1
    30   17   37 1
    31   18   23 ar
    32   18   19 ar
    33   19   20 ar
    34   19   38 1
    35   20   21 ar
    36   20   39 1
    37   21   22 ar
    38   21   24 1
    39   22   23 ar
    40   23   40 1
    41   24   25 1
    42   24   41 1
    43   25   26 2
    44   25   27 1
    45   26   45 1
    46   27   42 1
    47   27   43 1
    48   28   44 1
@<TRIPOS>MOLECULE
CHEMBL601870
   60    63     0     0     0
SMALL
USER_CHARGES

@<TRIPOS>ATOM
      1 C1          0.5637    1.6597   -0.1697 C.3       1 <0>         0.0977
      2 N1          0.3322    0.2159   -0.0808 N.pl3     1 <0>        -0.3835
      3 C2          0.1627   -0.6286   -1.1235 C.2       1 <0>         0.3054
      4 C3         -0.0231   -1.8773   -0.6149 C.2       1 <0>        -0.2426
      5 C4          0.0359   -1.7849    0.7784 C.2       1 <0>         0.0875
      6 N2          0.2535   -0.5351    1.0989 N.2       1 <0>        -0.2728
      7 C5         -0.1193   -2.9298    1.7460 C.3       1 <0>         0.1433
      8 O1         -0.3389   -4.1408    1.0198 O.3       1 <0>        -0.3822
      9 C6         -0.4999   -5.2941    1.8480 C.3       1 <0>         0.0320
     10 N3          0.1754   -0.2826   -2.4750 N.am      1 <0>        -0.6239
     11 C7         -0.0076   -1.2308   -3.4151 C.2       1 <0>         0.6589
     12 O2         -0.1837   -2.3870   -3.0857 O.2       1 <0>        -0.5261
     13 O3          0.0047   -0.8968   -4.7195 O.3       1 <0>        -0.3475
     14 C8         -0.1958   -1.9525   -5.6615 C.3       1 <0>         0.0950
     15 C9         -0.1494   -1.3847   -7.0814 C.3       1 <0>         0.1322
     16 C10         1.1442   -0.6381   -7.2819 C.ar      1 <0>        -0.1349
     17 C11         1.2827    0.6480   -6.7945 C.ar      1 <0>        -0.0773
     18 C12         2.4693    1.3328   -6.9784 C.ar      1 <0>        -0.1232
     19 C13         3.5176    0.7314   -7.6493 C.ar      1 <0>        -0.1028
     20 C14         3.3795   -0.5551   -8.1360 C.ar      1 <0>        -0.1163
     21 C15         2.1944   -1.2415   -7.9483 C.ar      1 <0>        -0.1053
     22 O4         -1.2490   -0.4926   -7.2739 O.3       1 <0>        -0.2905
     23 C16        -1.6699   -0.2992   -8.5503 C.ar      1 <0>         0.2190
     24 C17        -0.9703   -0.8610   -9.5911 C.ar      1 <0>        -0.2231
     25 C18        -1.3695   -0.6857  -10.9088 C.ar      1 <0>         0.0065
     26 C19        -2.4929    0.0677  -11.1864 C.ar      1 <0>        -0.1275
     27 C20        -3.2069    0.6382  -10.1546 C.ar      1 <0>        -0.0384
     28 C21        -2.8351    0.4787   -8.7990 C.ar      1 <0>        -0.1611
     29 C22        -3.6691    1.1186   -7.8657 C.2       1 <0>         0.0366
     30 C23        -4.7486    1.8251   -8.2925 C.2       1 <0>        -0.2907
     31 S1         -4.6637    1.6492  -10.0663 S.3       1 <0>         0.1373
     32 C24        -5.7381    2.5606   -7.4907 C.cat     1 <0>         0.6507
     33 N4         -6.7417    3.2023   -8.0935 N.pl3     1 <0>        -0.7616
     34 N5         -5.6327    2.5867   -6.1601 N.pl3     1 <0>        -0.7609
     35 H1          1.6348    1.8531   -0.2286 H         1 <0>         0.0792
     36 H2          0.0741    2.0520   -1.0611 H         1 <0>         0.0794
     37 H3          0.1543    2.1484    0.7144 H         1 <0>         0.0988
     38 H4         -0.1873   -2.7789   -1.1863 H         1 <0>         0.1815
     39 H5          0.7863   -3.0245    2.3451 H         1 <0>         0.0742
     40 H6         -0.9698   -2.7395    2.4006 H         1 <0>         0.0734
     41 H7         -0.6621   -6.1714    1.2217 H         1 <0>         0.0911
     42 H8          0.3978   -5.4379    2.4492 H         1 <0>         0.0455
     43 H9         -1.3583   -5.1528    2.5047 H         1 <0>         0.0447
     44 H10         0.3160    0.6404   -2.7380 H         1 <0>         0.4160
     45 H11         0.5895   -2.6992   -5.5429 H         1 <0>         0.1040
     46 H12        -1.1669   -2.4157   -5.4869 H         1 <0>         0.0908
     47 H13        -0.2133   -2.2007   -7.8013 H         1 <0>         0.1156
     48 H14         0.4637    1.1179   -6.2703 H         1 <0>         0.1244
     49 H15         2.5772    2.3379   -6.5982 H         1 <0>         0.1246
     50 H16         4.4445    1.2667   -7.7936 H         1 <0>         0.1267
     51 H17         4.1984   -1.0249   -8.6605 H         1 <0>         0.1291
     52 H18         2.0877   -2.2479   -8.3253 H         1 <0>         0.1263
     53 H19        -0.0910   -1.4511   -9.3794 H         1 <0>         0.1482
     54 H20        -0.8048   -1.1355  -11.7120 H         1 <0>         0.1544
     55 H21        -2.8109    0.2098  -12.2087 H         1 <0>         0.1489
     56 H22        -3.4523    1.0484   -6.8100 H         1 <0>         0.1508
     57 H23        -6.8183    3.1834   -9.0603 H         1 <0>         0.4448
     58 H24        -4.9035    2.1205   -5.7222 H         1 <0>         0.4445
     59 H25        -6.2853    3.0718   -5.6313 H         1 <0>         0.4365
     60 H26        -7.3943    3.6874   -7.5647 H         1 <0>         0.4366
@<TRIPOS>BOND
     1    1    2 1
     2    1   35 1
     3    1   36 1
     4    1   37 1
     5    2    6 1
     6    2    3 1
     7    3    4 2
     8    3   10 1
     9    4    5 1
    10    4   38 1
    11    5    6 2
    12    5    7 1
    13    7    8 1
    14    7   39 1
    15    7   40 1
    16    8    9 1
    17    9   41 1
    18    9   42 1
    19    9   43 1
    20   10   11 am
    21   10   44 1
    22   11   12 2
    23   11   13 1
    24   13   14 1
    25   14   15 1
    26   14   45 1
    27   14   46 1
    28   15   16 1
    29   15   22 1
    30   15   47 1
    31   16   21 ar
    32   16   17 ar
    33   17   18 ar
    34   17   48 1
    35   18   19 ar
    36   18   49 1
    37   19   20 ar
    38   19   50 1
    39   20   21 ar
    40   20   51 1
    41   21   52 1
    42   22   23 1
    43   23   28 ar
    44   23   24 ar
    45   24   25 ar
    46   24   53 1
    47   25   26 ar
    48   25   54 1
    49   26   27 ar
    50   26   55 1
    51   27   31 1
    52   27   28 ar
    53   28   29 1
    54   29   30 2
    55   29   56 1
    56   30   31 1
    57   30   32 1
    58   32   33 2
    59   32   34 1
    60   33   57 1
    61   33   60 1
    62   34   58 1
    63   34   59 1
@<TRIPOS>MOLECULE
CHEMBL601870__1
   60    63     0     0     0
SMALL
USER_CHARGES

@<TRIPOS>ATOM
      1 C1         -0.7846    2.5489   -0.5458 C.3       1 <0>         0.0977
      2 N1         -0.7291    1.1034   -0.3140 N.pl3     1 <0>        -0.3835
      3 C2         -0.5951    0.1497   -1.2636 C.2       1 <0>         0.3055
      4 C3         -0.5863   -1.0575   -0.6351 C.2       1 <0>        -0.2427
      5 C4         -0.7192   -0.8265    0.7370 C.2       1 <0>         0.0876
      6 N2         -0.7994    0.4650    0.9307 N.2       1 <0>        -0.2728
      7 C5         -0.7583   -1.8839    1.8100 C.3       1 <0>         0.1433
      8 O1         -0.6378   -3.1755    1.2107 O.3       1 <0>        -0.3821
      9 C6         -0.6636   -4.2552    2.1464 C.3       1 <0>         0.0320
     10 N3         -0.4860    0.3643   -2.6377 N.am      1 <0>        -0.6239
     11 C7         -0.3567   -0.6836   -3.4753 C.2       1 <0>         0.6589
     12 O2         -0.3352   -1.8154   -3.0335 O.2       1 <0>        -0.5263
     13 O3         -0.2515   -0.4765   -4.8016 O.3       1 <0>        -0.3470
     14 C8         -0.1172   -1.6330   -5.6302 C.3       1 <0>         0.0952
     15 C9         -0.0118   -1.2018   -7.0944 C.3       1 <0>         0.1322
     16 C10        -1.1963   -0.3412   -7.4512 C.ar      1 <0>        -0.1331
     17 C11        -1.1671    1.0164   -7.1929 C.ar      1 <0>        -0.0798
     18 C12        -2.2537    1.8058   -7.5201 C.ar      1 <0>        -0.1223
     19 C13        -3.3693    1.2376   -8.1062 C.ar      1 <0>        -0.1037
     20 C14        -3.3982   -0.1199   -8.3653 C.ar      1 <0>        -0.1154
     21 C15        -2.3099   -0.9086   -8.0420 C.ar      1 <0>        -0.1059
     22 O4          1.1928   -0.4574   -7.2862 O.3       1 <0>        -0.2906
     23 C16         1.7067   -0.4294   -8.5428 C.ar      1 <0>         0.2184
     24 C17         1.0092   -1.0051   -9.5774 C.ar      1 <0>        -0.2226
     25 C18         1.5020   -0.9965  -10.8749 C.ar      1 <0>         0.0065
     26 C19         2.7181   -0.3979  -11.1384 C.ar      1 <0>        -0.1274
     27 C20         3.4309    0.1849  -10.1127 C.ar      1 <0>        -0.0385
     28 C21         2.9604    0.2010   -8.7787 C.ar      1 <0>        -0.1609
     29 C22         3.8014    0.8387   -7.8502 C.2       1 <0>         0.0364
     30 C23         4.9733    1.3895   -8.2626 C.2       1 <0>        -0.2906
     31 S1          4.9856    1.0362  -10.0117 S.3       1 <0>         0.1375
     32 C24         5.9860    2.0952   -7.4629 C.cat     1 <0>         0.6507
     33 N4          7.0861    2.5725   -8.0496 N.pl3     1 <0>        -0.7615
     34 N5          5.8051    2.2583   -6.1503 N.pl3     1 <0>        -0.7609
     35 H1          0.2243    2.9604   -0.5180 H         1 <0>         0.0768
     36 H2         -1.2296    2.7436   -1.5217 H         1 <0>         0.0810
     37 H3         -1.3900    3.0183    0.2296 H         1 <0>         0.0996
     38 H4         -0.4936   -2.0221   -1.1117 H         1 <0>         0.1815
     39 H5          0.0670   -1.7272    2.5047 H         1 <0>         0.0733
     40 H6         -1.7037   -1.8201    2.3487 H         1 <0>         0.0743
     41 H7         -0.5671   -5.2008    1.6129 H         1 <0>         0.0911
     42 H8          0.1636   -4.1478    2.8480 H         1 <0>         0.0447
     43 H9         -1.6071   -4.2406    2.6921 H         1 <0>         0.0455
     44 H10        -0.5032    1.2678   -2.9904 H         1 <0>         0.4161
     45 H11         0.7818   -2.1804   -5.3470 H         1 <0>         0.0908
     46 H12        -0.9889   -2.2748   -5.5023 H         1 <0>         0.1039
     47 H13         0.0012   -2.0850   -7.7332 H         1 <0>         0.1160
     48 H14        -0.2955    1.4604   -6.7350 H         1 <0>         0.1234
     49 H15        -2.2311    2.8665   -7.3177 H         1 <0>         0.1245
     50 H16        -4.2185    1.8543   -8.3612 H         1 <0>         0.1267
     51 H17        -4.2699   -0.5639   -8.8228 H         1 <0>         0.1291
     52 H18        -2.3310   -1.9686   -8.2478 H         1 <0>         0.1266
     53 H19         0.0576   -1.4747   -9.3766 H         1 <0>         0.1483
     54 H20         0.9379   -1.4554  -11.6734 H         1 <0>         0.1544
     55 H21         3.1095   -0.3866  -12.1449 H         1 <0>         0.1489
     56 H22         3.5163    0.8912   -6.8099 H         1 <0>         0.1508
     57 H23         7.2175    2.4540   -9.0033 H         1 <0>         0.4448
     58 H24         5.0058    1.9115   -5.7240 H         1 <0>         0.4445
     59 H25         6.4730    2.7238   -5.6228 H         1 <0>         0.4365
     60 H26         7.7540    3.0380   -7.5221 H         1 <0>         0.4366
@<TRIPOS>BOND
     1    1    2 1
     2    1   35 1
     3    1   36 1
     4    1   37 1
     5    2    6 1
     6    2    3 1
     7    3    4 2
     8    3   10 1
     9    4    5 1
    10    4   38 1
    11    5    6 2
    12    5    7 1
    13    7    8 1
    14    7   39 1
    15    7   40 1
    16    8    9 1
    17    9   41 1
    18    9   42 1
    19    9   43 1
    20   10   11 am
    21   10   44 1
    22   11   12 2
    23   11   13 1
    24   13   14 1
    25   14   15 1
    26   14   45 1
    27   14   46 1
    28   15   16 1
    29   15   22 1
    30   15   47 1
    31   16   21 ar
    32   16   17 ar
    33   17   18 ar
    34   17   48 1
    35   18   19 ar
    36   18   49 1
    37   19   20 ar
    38   19   50 1
    39   20   21 ar
    40   20   51 1
    41   21   52 1
    42   22   23 1
    43   23   28 ar
    44   23   24 ar
    45   24   25 ar
    46   24   53 1
    47   25   26 ar
    48   25   54 1
    49   26   27 ar
    50   26   55 1
    51   27   31 1
    52   27   28 ar
    53   28   29 1
    54   29   30 2
    55   29   56 1
    56   30   31 1
    57   30   32 1
    58   32   33 2
    59   32   34 1
    60   33   57 1
    61   33   60 1
    62   34   58 1
    63   34   59 1
@<TRIPOS>MOLECULE
CHEMBL60088
   21    22     0     0     0
SMALL
USER_CHARGES

@<TRIPOS>ATOM
      1 C1         -0.0168    1.3849    0.0097 C.ar      1 <0>        -0.0377
      2 C2          1.1752    2.0813    0.0020 C.ar      1 <0>        -0.0720
      3 C3          2.3667    1.3887   -0.0131 C.ar      1 <0>        -0.0716
      4 C4          2.4167   -0.0255   -0.0212 C.ar      1 <0>        -0.1055
      5 C5          3.7085   -0.5826   -0.0365 C.2       1 <0>         0.0005
      6 C6          4.7974    0.2296   -0.0425 C.2       1 <0>        -0.2632
      7 S1          4.0775    1.8622   -0.0269 S.3       1 <0>         0.1587
      8 C7          6.2207   -0.1449   -0.0574 C.cat     1 <0>         0.6497
      9 N1          7.1601    0.8029   -0.0614 N.pl3     1 <0>        -0.7567
     10 N2          6.5718   -1.4324   -0.0670 N.pl3     1 <0>        -0.7553
     11 C8          1.1688   -0.7006   -0.0133 C.ar      1 <0>        -0.0394
     12 C9          0.0021   -0.0041    0.0020 C.ar      1 <0>        -0.0838
     13 I1          1.1244   -2.7951   -0.0249 I         1 <0>        -0.0078
     14 H1         -0.9570    1.9160    0.0260 H         1 <0>         0.1610
     15 H2          1.1740    3.1613    0.0075 H         1 <0>         0.1544
     16 H3          3.8343   -1.6552   -0.0431 H         1 <0>         0.1500
     17 H4          6.9048    1.7387   -0.0545 H         1 <0>         0.4456
     18 H5          5.8890   -2.1214   -0.0641 H         1 <0>         0.4457
     19 H6          7.5098   -1.6792   -0.0768 H         1 <0>         0.4389
     20 H7         -0.9335   -0.5436    0.0084 H         1 <0>         0.1498
     21 H8          8.0981    0.5561   -0.0713 H         1 <0>         0.4388
@<TRIPOS>BOND
     1    1   12 ar
     2    1    2 ar
     3    1   14 1
     4    2    3 ar
     5    2   15 1
     6    3    7 1
     7    3    4 ar
     8    4    5 1
     9    4   11 ar
    10    5    6 2
    11    5   16 1
    12    6    7 1
    13    6    8 1
    14    8    9 2
    15    8   10 1
    16    9   17 1
    17    9   21 1
    18   10   18 1
    19   10   19 1
    20   11   12 ar
    21   11   13 1
    22   12   20 1
@<TRIPOS>MOLECULE
CHEMBL601019
   56    59     0     0     0
SMALL
USER_CHARGES

@<TRIPOS>ATOM
      1 C1          1.8099    1.3540   -0.1922 C.3       1 <0>        -0.0941
      2 C2          1.0392    0.0594   -0.1607 C.2       1 <0>         0.0884
      3 C3          0.3954   -0.5164   -1.2078 C.2       1 <0>        -0.0054
      4 C4         -0.1903   -1.7058   -0.7508 C.2       1 <0>         0.1013
      5 N1          0.0895   -1.8407    0.5202 N.2       1 <0>        -0.2788
      6 N2          0.8673   -0.7464    0.9194 N.pl3     1 <0>        -0.4671
      7 H1          1.2192   -0.5904    1.8098 H         1 <0>         0.4474
      8 C5         -1.0039   -2.6644   -1.5816 C.3       1 <0>        -0.0596
      9 N3          0.3274   -0.0092   -2.5199 N.am      1 <0>        -0.6197
     10 C6          0.5627   -0.8214   -3.5694 C.2       1 <0>         0.6471
     11 O1          0.7287   -2.0120   -3.3911 O.2       1 <0>        -0.5467
     12 O2          0.6140   -0.3136   -4.8156 O.3       1 <0>        -0.3533
     13 C7          0.8674   -1.2321   -5.8805 C.3       1 <0>         0.0969
     14 C8          0.8891   -0.4770   -7.2110 C.3       1 <0>         0.1308
     15 C9          1.8911    0.6460   -7.1349 C.ar      1 <0>        -0.1328
     16 C10         1.5568    1.8289   -6.5026 C.ar      1 <0>        -0.0759
     17 C11         2.4758    2.8591   -6.4328 C.ar      1 <0>        -0.1235
     18 C12         3.7294    2.7063   -6.9950 C.ar      1 <0>        -0.1037
     19 C13         4.0641    1.5231   -7.6266 C.ar      1 <0>        -0.1173
     20 C14         3.1464    0.4913   -7.6926 C.ar      1 <0>        -0.1049
     21 O3         -0.4087    0.0595   -7.4754 O.3       1 <0>        -0.2893
     22 C15        -0.7107    0.3326   -8.7708 C.ar      1 <0>         0.2210
     23 C16         0.2042    0.0531   -9.7574 C.ar      1 <0>        -0.2247
     24 C17        -0.0683    0.3180  -11.0923 C.ar      1 <0>         0.0071
     25 C18        -1.2828    0.8736  -11.4430 C.ar      1 <0>        -0.1287
     26 C19        -2.2123    1.1599  -10.4665 C.ar      1 <0>        -0.0378
     27 C20        -1.9741    0.9003   -9.0964 C.ar      1 <0>        -0.1616
     28 C21        -3.0232    1.2441   -8.2262 C.2       1 <0>         0.0377
     29 C22        -4.1683    1.7817   -8.7228 C.2       1 <0>        -0.2912
     30 S1         -3.8457    1.8557  -10.4763 S.3       1 <0>         0.1357
     31 C23        -5.3730    2.2061   -7.9937 C.cat     1 <0>         0.6508
     32 N4         -6.4108    2.7177   -8.6598 N.pl3     1 <0>        -0.7621
     33 N5         -5.4289    2.0797   -6.6659 N.pl3     1 <0>        -0.7607
     34 H2          2.8501    1.1514   -0.4474 H         1 <0>         0.0863
     35 H3          1.3751    2.0176   -0.9395 H         1 <0>         0.0836
     36 H4          1.7621    1.8292    0.7876 H         1 <0>         0.0791
     37 H5         -0.3710   -3.4894   -1.9085 H         1 <0>         0.0876
     38 H6         -1.8283   -3.0537   -0.9842 H         1 <0>         0.0683
     39 H7         -1.4008   -2.1436   -2.4529 H         1 <0>         0.0654
     40 H8          0.1111    0.9247   -2.6683 H         1 <0>         0.4115
     41 H9          1.8312   -1.7158   -5.7215 H         1 <0>         0.0996
     42 H10         0.0815   -1.9870   -5.9039 H         1 <0>         0.0875
     43 H11         1.1698   -1.1607   -8.0122 H         1 <0>         0.1133
     44 H12         0.5774    1.9483   -6.0633 H         1 <0>         0.1248
     45 H13         2.2144    3.7835   -5.9393 H         1 <0>         0.1243
     46 H14         4.4472    3.5114   -6.9411 H         1 <0>         0.1260
     47 H15         5.0433    1.4038   -8.0661 H         1 <0>         0.1282
     48 H16         3.4092   -0.4345   -8.1828 H         1 <0>         0.1252
     49 H17         1.1555   -0.3815   -9.4883 H         1 <0>         0.1477
     50 H18         0.6651    0.0912  -11.8519 H         1 <0>         0.1541
     51 H19        -1.5034    1.0835  -12.4792 H         1 <0>         0.1484
     52 H20        -2.9195    1.0807   -7.1637 H         1 <0>         0.1514
     53 H21        -6.3702    2.8095   -9.6246 H         1 <0>         0.4446
     54 H22        -4.6749    1.7079   -6.1819 H         1 <0>         0.4447
     55 H23        -6.2235    2.3595   -6.1850 H         1 <0>         0.4364
     56 H24        -7.2054    2.9976   -8.1789 H         1 <0>         0.4365
@<TRIPOS>BOND
     1    1    2 1
     2    1   34 1
     3    1   35 1
     4    1   36 1
     5    2    6 1
     6    2    3 2
     7    3    4 1
     8    3    9 1
     9    4    5 2
    10    4    8 1
    11    5    6 1
    12    6    7 1
    13    8   37 1
    14    8   38 1
    15    8   39 1
    16    9   10 am
    17    9   40 1
    18   10   11 2
    19   10   12 1
    20   12   13 1
    21   13   14 1
    22   13   41 1
    23   13   42 1
    24   14   15 1
    25   14   21 1
    26   14   43 1
    27   15   20 ar
    28   15   16 ar
    29   16   17 ar
    30   16   44 1
    31   17   18 ar
    32   17   45 1
    33   18   19 ar
    34   18   46 1
    35   19   20 ar
    36   19   47 1
    37   20   48 1
    38   21   22 1
    39   22   27 ar
    40   22   23 ar
    41   23   24 ar
    42   23   49 1
    43   24   25 ar
    44   24   50 1
    45   25   26 ar
    46   25   51 1
    47   26   30 1
    48   26   27 ar
    49   27   28 1
    50   28   29 2
    51   28   52 1
    52   29   30 1
    53   29   31 1
    54   31   32 2
    55   31   33 1
    56   32   53 1
    57   32   56 1
    58   33   54 1
    59   33   55 1
@<TRIPOS>MOLECULE
CHEMBL601019__1
   56    59     0     0     0
SMALL
USER_CHARGES

@<TRIPOS>ATOM
      1 C1         -0.2364    1.9787    0.4375 C.3       1 <0>        -0.0910
      2 C2         -0.7979    0.5822    0.3623 C.2       1 <0>         0.0828
      3 C3         -1.0565   -0.1182   -0.7712 C.2       1 <0>        -0.0017
      4 C4         -1.5678   -1.3691   -0.3963 C.2       1 <0>         0.1033
      5 N1         -1.6151   -1.4197    0.9102 N.2       1 <0>        -0.2774
      6 N2         -1.1316   -0.2066    1.4167 N.pl3     1 <0>        -0.4679
      7 H1         -1.0513    0.0293    2.3541 H         1 <0>         0.4468
      8 C5         -1.9913   -2.4671   -1.3376 C.3       1 <0>        -0.0621
      9 N3         -0.8488    0.3315   -2.0896 N.am      1 <0>        -0.6201
     10 C6         -0.2365   -0.4677   -2.9857 C.2       1 <0>         0.6474
     11 O1          0.0406   -1.6131   -2.6887 O.2       1 <0>        -0.5471
     12 O2          0.0681    0.0030   -4.2101 O.3       1 <0>        -0.3525
     13 C7          0.7165   -0.8990   -5.1090 C.3       1 <0>         0.0968
     14 C8          0.9807   -0.1912   -6.4394 C.3       1 <0>         0.1318
     15 C9         -0.3119    0.3672   -6.9767 C.ar      1 <0>        -0.1315
     16 C10        -0.7537    1.6095   -6.5615 C.ar      1 <0>        -0.0783
     17 C11        -1.9393    2.1217   -7.0543 C.ar      1 <0>        -0.1219
     18 C12        -2.6829    1.3918   -7.9627 C.ar      1 <0>        -0.1042
     19 C13        -2.2406    0.1499   -8.3786 C.ar      1 <0>        -0.1160
     20 C14        -1.0528   -0.3605   -7.8890 C.ar      1 <0>        -0.1067
     21 O3          1.9114    0.8738   -6.2358 O.3       1 <0>        -0.2895
     22 C15         2.6383    1.2714   -7.3116 C.ar      1 <0>         0.2195
     23 C16         2.3836    0.7243   -8.5462 C.ar      1 <0>        -0.2233
     24 C17         3.1053    1.1053   -9.6688 C.ar      1 <0>         0.0068
     25 C18         4.1013    2.0541   -9.5494 C.ar      1 <0>        -0.1282
     26 C19         4.3699    2.6137   -8.3188 C.ar      1 <0>        -0.0380
     27 C20         3.6536    2.2556   -7.1527 C.ar      1 <0>        -0.1616
     28 C21         4.0441    2.9202   -5.9771 C.2       1 <0>         0.0377
     29 C22         5.0447    3.8389   -6.0173 C.2       1 <0>        -0.2915
     30 S1          5.5264    3.8281   -7.7355 S.3       1 <0>         0.1359
     31 C23         5.5997    4.6385   -4.9148 C.cat     1 <0>         0.6510
     32 N4          6.5925    5.4999   -5.1489 N.pl3     1 <0>        -0.7619
     33 N5          5.1107    4.5030   -3.6800 N.pl3     1 <0>        -0.7611
     34 H2          0.8521    1.9313    0.4705 H         1 <0>         0.0819
     35 H3         -0.5491    2.5438   -0.4406 H         1 <0>         0.0830
     36 H4         -0.6061    2.4709    1.3370 H         1 <0>         0.0786
     37 H5         -1.1821   -3.1902   -1.4399 H         1 <0>         0.0879
     38 H6         -2.8756   -2.9653   -0.9403 H         1 <0>         0.0700
     39 H7         -2.2224   -2.0401   -2.3135 H         1 <0>         0.0676
     40 H8         -1.1463    1.2164   -2.3527 H         1 <0>         0.4123
     41 H9          1.6625   -1.2253   -4.6769 H         1 <0>         0.0862
     42 H10         0.0768   -1.7651   -5.2789 H         1 <0>         0.1002
     43 H11         1.3937   -0.9031   -7.1540 H         1 <0>         0.1134
     44 H12        -0.1727    2.1797   -5.8517 H         1 <0>         0.1238
     45 H13        -2.2848    3.0919   -6.7293 H         1 <0>         0.1244
     46 H14        -3.6095    1.7916   -8.3472 H         1 <0>         0.1262
     47 H15        -2.8217   -0.4205   -9.0881 H         1 <0>         0.1284
     48 H16        -0.7055   -1.3291   -8.2168 H         1 <0>         0.1256
     49 H17         1.6056   -0.0182   -8.6449 H         1 <0>         0.1483
     50 H18         2.8893    0.6622  -10.6298 H         1 <0>         0.1542
     51 H19         4.6683    2.3565  -10.4175 H         1 <0>         0.1486
     52 H20         3.5489    2.7012   -5.0427 H         1 <0>         0.1511
     53 H21         6.9477    5.5983   -6.0461 H         1 <0>         0.4447
     54 H22         4.3894    3.8772   -3.5099 H         1 <0>         0.4446
     55 H23         5.4768    5.0304   -2.9528 H         1 <0>         0.4363
     56 H24         6.9585    6.0273   -4.4217 H         1 <0>         0.4365
@<TRIPOS>BOND
     1    1    2 1
     2    1   34 1
     3    1   35 1
     4    1   36 1
     5    2    6 1
     6    2    3 2
     7    3    4 1
     8    3    9 1
     9    4    5 2
    10    4    8 1
    11    5    6 1
    12    6    7 1
    13    8   37 1
    14    8   38 1
    15    8   39 1
    16    9   10 am
    17    9   40 1
    18   10   11 2
    19   10   12 1
    20   12   13 1
    21   13   14 1
    22   13   41 1
    23   13   42 1
    24   14   15 1
    25   14   21 1
    26   14   43 1
    27   15   20 ar
    28   15   16 ar
    29   16   17 ar
    30   16   44 1
    31   17   18 ar
    32   17   45 1
    33   18   19 ar
    34   18   46 1
    35   19   20 ar
    36   19   47 1
    37   20   48 1
    38   21   22 1
    39   22   27 ar
    40   22   23 ar
    41   23   24 ar
    42   23   49 1
    43   24   25 ar
    44   24   50 1
    45   25   26 ar
    46   25   51 1
    47   26   30 1
    48   26   27 ar
    49   27   28 1
    50   28   29 2
    51   28   52 1
    52   29   30 1
    53   29   31 1
    54   31   32 2
    55   31   33 1
    56   32   53 1
    57   32   56 1
    58   33   54 1
    59   33   55 1
@<TRIPOS>MOLECULE
CHEMBL323387
   58    62     0     0     0
SMALL
USER_CHARGES

@<TRIPOS>ATOM
      1 C1          0.2501    0.9912    1.7806 C.ar      1 <0>        -0.0675
      2 C2          1.4125    1.6930    1.7535 C.ar      1 <0>        -0.0980
      3 C3          2.5536    1.1719    1.1206 C.ar      1 <0>        -0.1448
      4 C4          2.5145   -0.0707    0.5114 C.ar      1 <0>        -0.0227
      5 C5          1.3234   -0.8118    0.5287 C.ar      1 <0>        -0.0481
      6 C6          0.1777   -0.2748    1.1704 C.ar      1 <0>        -0.0246
      7 C7         -1.0140   -1.0156    1.1870 C.ar      1 <0>        -0.0403
      8 C8         -1.0531   -2.2583    0.5772 C.ar      1 <0>        -0.0982
      9 C9          0.0894   -2.7799   -0.0553 C.ar      1 <0>        -0.0825
     10 C10         1.2511   -2.0783   -0.0817 C.ar      1 <0>        -0.0935
     11 C11        -2.3058   -3.0430    0.5916 C.2       1 <0>         0.5532
     12 O1         -3.2962   -2.5968    1.1373 O.2       1 <0>        -0.5034
     13 N1         -2.3499   -4.2530   -0.0003 N.am      1 <0>        -0.6623
     14 C12        -3.5040   -5.0371    0.0962 C.ar      1 <0>         0.1274
     15 C13        -4.7558   -4.4325    0.0995 C.ar      1 <0>        -0.0997
     16 C14        -5.9030   -5.1999    0.1946 C.ar      1 <0>        -0.0979
     17 C15        -5.8078   -6.5704    0.2867 C.ar      1 <0>        -0.0713
     18 C16        -4.5528   -7.1881    0.2844 C.ar      1 <0>        -0.0893
     19 C17        -3.3983   -6.4181    0.1829 C.ar      1 <0>        -0.1076
     20 C18        -4.4891   -8.6591    0.3856 C.2       1 <0>         0.2172
     21 N2         -5.5332   -9.3659    0.1083 N.2       1 <0>        -0.5036
     22 C19        -6.7890   -8.7616   -0.3234 C.3       1 <0>         0.0389
     23 C20        -7.0381   -7.4338    0.3901 C.3       1 <0>        -0.1109
     24 C21        -3.2101   -9.3334    0.8104 C.3       1 <0>        -0.0464
     25 C22        -2.1312   -9.1532   -0.2774 C.3       1 <0>        -0.1135
     26 C23        -1.3615  -10.4973   -0.2754 C.3       1 <0>        -0.1253
     27 C24        -2.4876  -11.5356   -0.0453 C.3       1 <0>        -0.1240
     28 C25        -3.4368  -10.8482    0.9579 C.3       1 <0>        -0.1248
     29 C26         3.8074    1.9579    1.1047 C.cat     1 <0>         0.6011
     30 N3          3.7591    3.2884    1.1144 N.pl3     1 <0>        -0.7560
     31 N4          4.9836    1.3345    1.0807 N.pl3     1 <0>        -0.7594
     32 H1         -0.6177    1.4029    2.2745 H         1 <0>         0.1534
     33 H2          1.4602    2.6640    2.2239 H         1 <0>         0.1407
     34 H3          3.3944   -0.4664    0.0260 H         1 <0>         0.1472
     35 H4         -1.8940   -0.6197    1.6721 H         1 <0>         0.1572
     36 H5          0.0419   -3.7508   -0.5258 H         1 <0>         0.1394
     37 H6          2.1202   -2.4916   -0.5719 H         1 <0>         0.1468
     38 H7         -1.5811   -4.5801   -0.4932 H         1 <0>         0.4111
     39 H8         -4.8331   -3.3576    0.0278 H         1 <0>         0.1420
     40 H9         -6.8726   -4.7242    0.1970 H         1 <0>         0.1335
     41 H10        -2.4274   -6.8911    0.1761 H         1 <0>         0.1394
     42 H11        -6.7505   -8.5876   -1.3987 H         1 <0>         0.0793
     43 H12        -7.6089   -9.4451   -0.1024 H         1 <0>         0.0986
     44 H13        -7.2628   -7.6219    1.4399 H         1 <0>         0.0847
     45 H14        -7.8806   -6.9231   -0.0762 H         1 <0>         0.0906
     46 H15        -2.8631   -8.9141    1.7547 H         1 <0>         0.0902
     47 H16        -2.5941   -8.9800   -1.2489 H         1 <0>         0.0696
     48 H17        -1.4636   -8.3309   -0.0199 H         1 <0>         0.0670
     49 H18        -0.8727  -10.6639   -1.2353 H         1 <0>         0.0675
     50 H19        -0.6370  -10.5264    0.5384 H         1 <0>         0.0686
     51 H20        -3.0081  -11.7472   -0.9793 H         1 <0>         0.0657
     52 H21        -2.0801  -12.4520    0.3815 H         1 <0>         0.0658
     53 H22        -3.1989  -11.1642    1.9736 H         1 <0>         0.0626
     54 H23        -4.4718  -11.0956    0.7223 H         1 <0>         0.0958
     55 H24         4.5809    3.8036    1.1039 H         1 <0>         0.4338
     56 H25         5.0187    0.3652    1.0737 H         1 <0>         0.4458
     57 H26         5.8054    1.8497    1.0703 H         1 <0>         0.4340
     58 H27         2.9022    3.7425    1.1318 H         1 <0>         0.4474
@<TRIPOS>BOND
     1    1    6 ar
     2    1    2 ar
     3    1   32 1
     4    2    3 ar
     5    2   33 1
     6    3    4 ar
     7    3   29 1
     8    4    5 ar
     9    4   34 1
    10    5   10 ar
    11    5    6 ar
    12    6    7 ar
    13    7    8 ar
    14    7   35 1
    15    8    9 ar
    16    8   11 1
    17    9   10 ar
    18    9   36 1
    19   10   37 1
    20   11   12 2
    21   11   13 am
    22   13   14 1
    23   13   38 1
    24   14   19 ar
    25   14   15 ar
    26   15   16 ar
    27   15   39 1
    28   16   17 ar
    29   16   40 1
    30   17   23 1
    31   17   18 ar
    32   18   19 ar
    33   18   20 1
    34   19   41 1
    35   20   21 2
    36   20   24 1
    37   21   22 1
    38   22   23 1
    39   22   42 1
    40   22   43 1
    41   23   44 1
    42   23   45 1
    43   24   28 1
    44   24   25 1
    45   24   46 1
    46   25   26 1
    47   25   47 1
    48   25   48 1
    49   26   27 1
    50   26   49 1
    51   26   50 1
    52   27   28 1
    53   27   51 1
    54   27   52 1
    55   28   53 1
    56   28   54 1
    57   29   30 2
    58   29   31 1
    59   30   55 1
    60   30   58 1
    61   31   56 1
    62   31   57 1
@<TRIPOS>MOLECULE
CHEMBL367004
   66    67     0     0     0
SMALL
USER_CHARGES

@<TRIPOS>ATOM
      1 C1          0.6124    2.0081   -0.5535 C.3       1 <0>        -0.1585
      2 C2          0.4389    0.4881   -0.5344 C.3       1 <0>         0.1287
      3 H1          0.9837    0.0496   -1.3705 H         1 <0>         0.1201
      4 C3          0.9780   -0.0628    0.7606 C.2       1 <0>         0.5233
      5 O1          0.2462   -0.6716    1.5120 O.2       1 <0>        -0.5233
      6 N1          2.2735    0.1211    1.0837 N.am      1 <0>        -0.7199
      7 C4          2.7976   -0.4144    2.3426 C.3       1 <0>         0.1432
      8 H2          2.0280   -0.3539    3.1121 H         1 <0>         0.1075
      9 C5          3.2083   -1.8753    2.1446 C.3       1 <0>        -0.1381
     10 C6          3.7253   -2.4454    3.4674 C.3       1 <0>        -0.1366
     11 C7          4.9581   -1.6528    3.9133 C.3       1 <0>         0.1070
     12 N2          4.6096   -0.2265    3.9661 N.pl3     1 <0>        -0.6334
     13 C8          4.0194    0.4017    2.7761 C.3       1 <0>         0.3211
     14 O2          3.6174    1.7370    3.0881 O.3       1 <0>        -0.5455
     15 C9          4.8300    0.5032    5.1019 C.cat     1 <0>         0.7467
     16 N3          3.9541    1.4345    5.4756 N.pl3     1 <0>        -0.7776
     17 N4          5.9205    0.2825    5.8342 N.pl3     1 <0>        -0.7854
     18 N5         -0.9835    0.1574   -0.6511 N.am      1 <0>        -0.7144
     19 C10        -1.5594    0.0783   -1.8671 C.2       1 <0>         0.5338
     20 O3         -0.9000    0.2808   -2.8647 O.2       1 <0>        -0.5140
     21 C11        -3.0226   -0.2618   -1.9872 C.3       1 <0>         0.1329
     22 H3         -3.2054   -1.2411   -1.5450 H         1 <0>         0.1342
     23 C12        -3.8532    0.7925   -1.2528 C.3       1 <0>         0.0539
     24 O4         -3.5268    2.0902   -1.7543 O.3       1 <0>        -0.5584
     25 N6         -3.4039   -0.2857   -3.4015 N.pl3     1 <0>        -1.0947
     26 S1         -4.5321   -1.3733   -3.9366 S.o2      1 <0>         2.6087
     27 O5         -4.6338   -1.1327   -5.3334 O.2       1 <0>        -0.9418
     28 O6         -4.0838   -2.6304   -3.4488 O.2       1 <0>        -0.9504
     29 C13        -6.0721   -0.8941   -3.1063 C.3       1 <0>        -0.6269
     30 C14        -7.1964   -1.8411   -3.5308 C.3       1 <0>        -0.0720
     31 C15        -8.4758   -1.4429   -2.8410 C.ar      1 <0>        -0.0807
     32 C16        -8.7932   -1.9822   -1.6084 C.ar      1 <0>        -0.1170
     33 C17        -9.9667   -1.6170   -0.9757 C.ar      1 <0>        -0.1173
     34 C18       -10.8226   -0.7122   -1.5754 C.ar      1 <0>        -0.1193
     35 C19       -10.5048   -0.1723   -2.8076 C.ar      1 <0>        -0.1158
     36 C20        -9.3292   -0.5342   -3.4383 C.ar      1 <0>        -0.1151
     37 H4          1.6708    2.2541   -0.4666 H         1 <0>         0.0695
     38 H5          0.2225    2.4065   -1.4901 H         1 <0>         0.0824
     39 H6          0.0677    2.4465    0.2826 H         1 <0>         0.0654
     40 H7          2.8589    0.6081    0.4828 H         1 <0>         0.4082
     41 H8          2.3458   -2.4532    1.8126 H         1 <0>         0.0957
     42 H9          3.9949   -1.9326    1.3923 H         1 <0>         0.0812
     43 H10         2.9474   -2.3658    4.2267 H         1 <0>         0.0807
     44 H11         3.9957   -3.4925    3.3313 H         1 <0>         0.1055
     45 H12         5.2711   -1.9893    4.9016 H         1 <0>         0.0990
     46 H13         5.7680   -1.8049    3.1998 H         1 <0>         0.1017
     47 H14         4.7529    0.4177    1.9701 H         1 <0>         0.1114
     48 H15         4.3523    2.3317    3.2915 H         1 <0>         0.3954
     49 H16         4.1533    2.0137    6.2278 H         1 <0>         0.4335
     50 H17         6.5215   -0.4428    5.6027 H         1 <0>         0.4404
     51 H18         6.1136    0.8470    6.5989 H         1 <0>         0.4393
     52 H19        -1.5109   -0.0045    0.1467 H         1 <0>         0.4100
     53 H20        -4.9133    0.5968   -1.4138 H         1 <0>         0.0663
     54 H21        -3.6338    0.7495   -0.1860 H         1 <0>         0.0663
     55 H22        -4.0170    2.8094   -1.3329 H         1 <0>         0.3871
     56 H23        -2.9955    0.3356   -4.0245 H         1 <0>         0.4318
     57 H24        -5.9361   -0.9526   -2.0264 H         1 <0>         0.1321
     58 H25        -6.3326    0.1270   -3.3849 H         1 <0>         0.1396
     59 H26        -7.3324   -1.7826   -4.6107 H         1 <0>         0.0920
     60 H27        -6.9360   -2.8622   -3.2522 H         1 <0>         0.0911
     61 H28        -8.1244   -2.6891   -1.1399 H         1 <0>         0.1234
     62 H29       -10.2150   -2.0388   -0.0130 H         1 <0>         0.1241
     63 H30       -11.7398   -0.4274   -1.0814 H         1 <0>         0.1237
     64 H31       -11.1737    0.5343   -3.2763 H         1 <0>         0.1250
     65 H32        -9.0791   -0.1096   -4.3993 H         1 <0>         0.1247
     66 H33         3.1170    1.5335    4.9956 H         1 <0>         0.4486
@<TRIPOS>BOND
     1    1    2 1
     2    1   37 1
     3    1   38 1
     4    1   39 1
     5    2    3 1
     6    2    4 1
     7    2   18 1
     8    4    5 2
     9    4    6 am
    10    6    7 1
    11    6   40 1
    12    7    8 1
    13    7   13 1
    14    7    9 1
    15    9   10 1
    16    9   41 1
    17    9   42 1
    18   10   11 1
    19   10   43 1
    20   10   44 1
    21   11   12 1
    22   11   45 1
    23   11   46 1
    24   12   13 1
    25   12   15 1
    26   13   14 1
    27   13   47 1
    28   14   48 1
    29   15   16 2
    30   15   17 1
    31   16   49 1
    32   16   66 1
    33   17   50 1
    34   17   51 1
    35   18   19 am
    36   18   52 1
    37   19   20 2
    38   19   21 1
    39   21   22 1
    40   21   23 1
    41   21   25 1
    42   23   24 1
    43   23   53 1
    44   23   54 1
    45   24   55 1
    46   25   26 1
    47   25   56 1
    48   26   27 2
    49   26   28 2
    50   26   29 1
    51   29   30 1
    52   29   57 1
    53   29   58 1
    54   30   31 1
    55   30   59 1
    56   30   60 1
    57   31   36 ar
    58   31   32 ar
    59   32   33 ar
    60   32   61 1
    61   33   34 ar
    62   33   62 1
    63   34   35 ar
    64   34   63 1
    65   35   36 ar
    66   35   64 1
    67   36   65 1
@<TRIPOS>MOLECULE
CHEMBL367004__1
   66    67     0     0     0
SMALL
USER_CHARGES

@<TRIPOS>ATOM
      1 C1         -0.0187    1.5258    0.0104 C.3       1 <0>        -0.1596
      2 C2          0.0021   -0.0041    0.0020 C.3       1 <0>         0.1286
      3 H1          0.5123   -0.3556   -0.8948 H         1 <0>         0.1211
      4 C3          0.7309   -0.5033    1.2229 C.2       1 <0>         0.5205
      5 O1          0.1587   -1.2128    2.0229 O.2       1 <0>        -0.5246
      6 N1          2.0187   -0.1613    1.4257 N.am      1 <0>        -0.7202
      7 C4          2.7273   -0.6466    2.6126 C.3       1 <0>         0.1536
      8 H2          2.0358   -0.6975    3.4537 H         1 <0>         0.1119
      9 C5          3.2960   -2.0398    2.3339 C.3       1 <0>        -0.1389
     10 C6          4.0082   -2.5614    3.5841 C.3       1 <0>        -0.1371
     11 C7          5.1700   -1.6258    3.9327 C.3       1 <0>         0.1066
     12 N2          4.6527   -0.2565    4.0600 N.pl3     1 <0>        -0.6256
     13 C8          3.8741    0.3111    2.9507 C.3       1 <0>         0.3131
     14 O2          4.7167    0.4719    1.8078 O.3       1 <0>        -0.5401
     15 C9          4.8910    0.4763    5.1901 C.cat     1 <0>         0.7528
     16 N3          4.9347   -0.1259    6.3774 N.pl3     1 <0>        -0.7795
     17 N4          5.0793    1.7920    5.1034 N.pl3     1 <0>        -0.7872
     18 N5         -1.3723   -0.5112    0.0124 N.am      1 <0>        -0.7145
     19 C10        -2.0508   -0.6427   -1.1446 C.2       1 <0>         0.5336
     20 O3         -1.5236   -0.3413   -2.1944 O.2       1 <0>        -0.5134
     21 C11        -3.4646   -1.1643   -1.1339 C.3       1 <0>         0.1329
     22 H3         -3.4790   -2.1662   -0.7048 H         1 <0>         0.1342
     23 C12        -4.3441   -0.2367   -0.2931 C.3       1 <0>         0.0540
     24 O4         -4.2337    1.1001   -0.7857 O.3       1 <0>        -0.5584
     25 N6         -3.9776   -1.2130   -2.5053 N.pl3     1 <0>        -1.0947
     26 S1         -5.0081   -2.4265   -2.9613 S.o2      1 <0>         2.6085
     27 O5         -5.2764   -2.1775   -4.3344 O.2       1 <0>        -0.9417
     28 O6         -4.3602   -3.6242   -2.5553 O.2       1 <0>        -0.9502
     29 C13        -6.5065   -2.1611   -1.9739 C.3       1 <0>        -0.6269
     30 C14        -7.5398   -3.2363   -2.3161 C.3       1 <0>        -0.0720
     31 C15        -8.7846   -3.0159   -1.4958 C.ar      1 <0>        -0.0806
     32 C16        -8.9090   -3.6116   -0.2546 C.ar      1 <0>        -0.1170
     33 C17       -10.0508   -3.4094    0.4979 C.ar      1 <0>        -0.1173
     34 C18       -11.0681   -2.6112    0.0094 C.ar      1 <0>        -0.1193
     35 C19       -10.9434   -2.0147   -1.2314 C.ar      1 <0>        -0.1158
     36 C20        -9.7998   -2.2134   -1.9820 C.ar      1 <0>        -0.1151
     37 H4          1.0039    1.9031    0.0027 H         1 <0>         0.0695
     38 H5         -0.5459    1.8868   -0.8726 H         1 <0>         0.0836
     39 H6         -0.5289    1.8773    0.9072 H         1 <0>         0.0648
     40 H7          2.4764    0.4061    0.7859 H         1 <0>         0.4139
     41 H8          2.4840   -2.7172    2.0694 H         1 <0>         0.0884
     42 H9          4.0055   -1.9840    1.5084 H         1 <0>         0.0867
     43 H10         3.3051   -2.5941    4.4164 H         1 <0>         0.0780
     44 H11         4.3927   -3.5632    3.3924 H         1 <0>         0.1022
     45 H12         5.6186   -1.9361    4.8764 H         1 <0>         0.0937
     46 H13         5.9183   -1.6616    3.1409 H         1 <0>         0.1062
     47 H14         3.4674    1.2782    3.2464 H         1 <0>         0.0986
     48 H15         5.4652    1.0670    1.9516 H         1 <0>         0.3931
     49 H16         5.1037    0.3938    7.1788 H         1 <0>         0.4407
     50 H17         5.0475    2.2305    4.2388 H         1 <0>         0.4380
     51 H18         5.2483    2.3116    5.9048 H         1 <0>         0.4415
     52 H19        -1.7940   -0.7522    0.8520 H         1 <0>         0.4098
     53 H20        -5.3821   -0.5632   -0.3576 H         1 <0>         0.0663
     54 H21        -4.0169   -0.2692    0.7461 H         1 <0>         0.0662
     55 H22        -4.7661    1.7439   -0.2987 H         1 <0>         0.3869
     56 H23        -3.7136   -0.5345   -3.1463 H         1 <0>         0.4318
     57 H24        -6.2584   -2.2198   -0.9141 H         1 <0>         0.1321
     58 H25        -6.9189   -1.1770   -2.1966 H         1 <0>         0.1395
     59 H26        -7.7880   -3.1777   -3.3758 H         1 <0>         0.0920
     60 H27        -7.1275   -4.2205   -2.0934 H         1 <0>         0.0911
     61 H28        -8.1141   -4.2353    0.1271 H         1 <0>         0.1234
     62 H29       -10.1482   -3.8754    1.4673 H         1 <0>         0.1240
     63 H30       -11.9605   -2.4538    0.5969 H         1 <0>         0.1237
     64 H31       -11.7384   -1.3913   -1.6133 H         1 <0>         0.1250
     65 H32        -9.7007   -1.7445   -2.9498 H         1 <0>         0.1247
     66 H33         4.7976   -1.0841    6.4406 H         1 <0>         0.4429
@<TRIPOS>BOND
     1    1    2 1
     2    1   37 1
     3    1   38 1
     4    1   39 1
     5    2    3 1
     6    2    4 1
     7    2   18 1
     8    4    5 2
     9    4    6 am
    10    6    7 1
    11    6   40 1
    12    7    8 1
    13    7   13 1
    14    7    9 1
    15    9   10 1
    16    9   41 1
    17    9   42 1
    18   10   11 1
    19   10   43 1
    20   10   44 1
    21   11   12 1
    22   11   45 1
    23   11   46 1
    24   12   13 1
    25   12   15 1
    26   13   14 1
    27   13   47 1
    28   14   48 1
    29   15   16 2
    30   15   17 1
    31   16   49 1
    32   16   66 1
    33   17   50 1
    34   17   51 1
    35   18   19 am
    36   18   52 1
    37   19   20 2
    38   19   21 1
    39   21   22 1
    40   21   23 1
    41   21   25 1
    42   23   24 1
    43   23   53 1
    44   23   54 1
    45   24   55 1
    46   25   26 1
    47   25   56 1
    48   26   27 2
    49   26   28 2
    50   26   29 1
    51   29   30 1
    52   29   57 1
    53   29   58 1
    54   30   31 1
    55   30   59 1
    56   30   60 1
    57   31   36 ar
    58   31   32 ar
    59   32   33 ar
    60   32   61 1
    61   33   34 ar
    62   33   62 1
    63   34   35 ar
    64   34   63 1
    65   35   36 ar
    66   35   64 1
    67   36   65 1
@<TRIPOS>MOLECULE
CHEMBL303978
   52    55     0     0     0
SMALL
USER_CHARGES

@<TRIPOS>ATOM
      1 C1          0.0088    1.3535   -0.4249 C.ar      1 <0>        -0.0830
      2 C2          1.1857    2.0696   -0.3676 C.ar      1 <0>        -0.1081
      3 C3          2.4046    1.4006   -0.2371 C.ar      1 <0>        -0.0473
      4 C4          2.4240    0.0033   -0.1651 C.ar      1 <0>         0.1452
      5 C5          1.2296   -0.7060   -0.2242 C.ar      1 <0>         0.0993
      6 C6          0.0277   -0.0288   -0.3537 C.ar      1 <0>        -0.1649
      7 O1          1.2410   -2.0642   -0.1553 O.3       1 <0>        -0.2955
      8 C7         -0.0228   -2.7278   -0.2221 C.3       1 <0>         0.0614
      9 C8          0.1897   -4.2401   -0.1295 C.3       1 <0>        -0.1095
     10 C9          0.9613   -4.7244   -1.3605 C.3       1 <0>        -0.1340
     11 C10         1.1003   -6.2481   -1.2968 C.3       1 <0>        -0.1477
     12 C11        -0.2908   -6.8781   -1.1995 C.3       1 <0>        -0.0106
     13 N1         -0.9666   -6.3959    0.0109 N.4       1 <0>        -0.5022
     14 C12        -1.1676   -4.9445   -0.0755 C.3       1 <0>        -0.0034
     15 O2          3.6044   -0.6572   -0.0386 O.3       1 <0>        -0.4595
     16 C13         3.6674    2.1644   -0.1758 C.2       1 <0>         0.3796
     17 N2          3.7658    3.5275   -0.2318 N.pl3     1 <0>        -0.5836
     18 H1          3.0317    4.1558   -0.3173 H         1 <0>         0.4353
     19 C14         5.1111    3.8408   -0.1432 C.ar      1 <0>         0.0273
     20 C15         5.8194    5.0286   -0.1449 C.ar      1 <0>        -0.0007
     21 C16         7.2095    5.0026   -0.0379 C.ar      1 <0>        -0.1900
     22 C17         7.8842    3.7770    0.0709 C.ar      1 <0>         0.1423
     23 C18         7.1896    2.6027    0.0725 C.ar      1 <0>        -0.0895
     24 C19         5.7928    2.6132   -0.0339 C.ar      1 <0>         0.1347
     25 N3          4.8630    1.6375   -0.0540 N.2       1 <0>        -0.4581
     26 F1          9.2312    3.7597    0.1742 F         1 <0>        -0.1189
     27 C20         7.9724    6.2661   -0.0394 C.cat     1 <0>         0.6123
     28 N4          8.9413    6.4586   -0.9346 N.pl3     1 <0>        -0.7452
     29 N5          7.6926    7.2148    0.8544 N.pl3     1 <0>        -0.7508
     30 H2         -0.9327    1.8738   -0.5213 H         1 <0>         0.1447
     31 H3          1.1649    3.1479   -0.4239 H         1 <0>         0.1324
     32 H4         -0.8987   -0.5821   -0.3994 H         1 <0>         0.1404
     33 H5         -0.6507   -2.3978    0.6056 H         1 <0>         0.0765
     34 H6         -0.5104   -2.4865   -1.1666 H         1 <0>         0.0769
     35 H7          0.7570   -4.4735    0.7715 H         1 <0>         0.1084
     36 H8          0.4188   -4.4453   -2.2638 H         1 <0>         0.0831
     37 H9          1.9512   -4.2683   -1.3729 H         1 <0>         0.1030
     38 H10         1.5998   -6.6060   -2.1972 H         1 <0>         0.1158
     39 H11         1.6868   -6.5238   -0.4204 H         1 <0>         0.0903
     40 H12        -0.8763   -6.6021   -2.0765 H         1 <0>         0.1319
     41 H13        -0.1955   -7.9630   -1.1542 H         1 <0>         0.1367
     42 H14        -1.8614   -6.8536    0.1003 H         1 <0>         0.4364
     43 H15        -1.7197   -4.6019    0.7997 H         1 <0>         0.1373
     44 H16        -1.7345   -4.7097   -0.9764 H         1 <0>         0.1353
     45 H17         3.8766   -0.8041    0.8776 H         1 <0>         0.3958
     46 H18         5.2988    5.9711   -0.2290 H         1 <0>         0.1545
     47 H19         7.7172    1.6640    0.1559 H         1 <0>         0.1672
     48 H20         9.0951    5.8018   -1.6316 H         1 <0>         0.4497
     49 H21         6.9876    7.0747    1.5058 H         1 <0>         0.4479
     50 H22         8.1939    8.0452    0.8534 H         1 <0>         0.4353
     51 H23         9.4924    7.2555   -0.8890 H         1 <0>         0.4358
     52 H24        -0.4003   -6.6086    0.8185 H         1 <0>         0.4299
@<TRIPOS>BOND
     1    1    6 ar
     2    1    2 ar
     3    1   30 1
     4    2    3 ar
     5    2   31 1
     6    3    4 ar
     7    3   16 1
     8    4    5 ar
     9    4   15 1
    10    5    6 ar
    11    5    7 1
    12    6   32 1
    13    7    8 1
    14    8    9 1
    15    8   33 1
    16    8   34 1
    17    9   14 1
    18    9   10 1
    19    9   35 1
    20   10   11 1
    21   10   36 1
    22   10   37 1
    23   11   12 1
    24   11   38 1
    25   11   39 1
    26   12   13 1
    27   12   40 1
    28   12   41 1
    29   13   14 1
    30   13   42 1
    31   13   52 1
    32   14   43 1
    33   14   44 1
    34   15   45 1
    35   16   25 2
    36   16   17 1
    37   17   18 1
    38   17   19 1
    39   19   24 ar
    40   19   20 ar
    41   20   21 ar
    42   20   46 1
    43   21   22 ar
    44   21   27 1
    45   22   23 ar
    46   22   26 1
    47   23   24 ar
    48   23   47 1
    49   24   25 1
    50   27   28 2
    51   27   29 1
    52   28   48 1
    53   28   51 1
    54   29   49 1
    55   29   50 1
@<TRIPOS>MOLECULE
CHEMBL303978__1
   52    55     0     0     0
SMALL
USER_CHARGES

@<TRIPOS>ATOM
      1 C1          0.0088    1.3535   -0.4249 C.ar      1 <0>        -0.0829
      2 C2          1.1857    2.0696   -0.3676 C.ar      1 <0>        -0.1081
      3 C3          2.4046    1.4006   -0.2371 C.ar      1 <0>        -0.0473
      4 C4          2.4240    0.0033   -0.1651 C.ar      1 <0>         0.1451
      5 C5          1.2296   -0.7060   -0.2242 C.ar      1 <0>         0.0993
      6 C6          0.0277   -0.0288   -0.3537 C.ar      1 <0>        -0.1649
      7 O1          1.2410   -2.0642   -0.1553 O.3       1 <0>        -0.2955
      8 C7         -0.0228   -2.7278   -0.2221 C.3       1 <0>         0.0616
      9 C8          0.1897   -4.2401   -0.1295 C.3       1 <0>        -0.1103
     10 C9          0.7547   -4.5937    1.2492 C.3       1 <0>        -0.1330
     11 C10         0.8900   -6.1151    1.3597 C.3       1 <0>        -0.1480
     12 C11        -0.4735   -6.7626    1.1083 C.3       1 <0>        -0.0104
     13 N1         -0.9472   -6.4083   -0.2351 N.4       1 <0>        -0.5024
     14 C12        -1.1478   -4.9571   -0.3258 C.3       1 <0>        -0.0033
     15 O2          3.6044   -0.6572   -0.0386 O.3       1 <0>        -0.4592
     16 C13         3.6674    2.1644   -0.1758 C.2       1 <0>         0.3796
     17 N2          3.7658    3.5275   -0.2318 N.pl3     1 <0>        -0.5836
     18 H1          3.0317    4.1558   -0.3173 H         1 <0>         0.4353
     19 C14         5.1111    3.8408   -0.1432 C.ar      1 <0>         0.0274
     20 C15         5.8194    5.0286   -0.1449 C.ar      1 <0>        -0.0007
     21 C16         7.2095    5.0026   -0.0379 C.ar      1 <0>        -0.1900
     22 C17         7.8842    3.7770    0.0709 C.ar      1 <0>         0.1423
     23 C18         7.1896    2.6027    0.0725 C.ar      1 <0>        -0.0895
     24 C19         5.7928    2.6132   -0.0339 C.ar      1 <0>         0.1347
     25 N3          4.8630    1.6375   -0.0540 N.2       1 <0>        -0.4581
     26 F1          9.2312    3.7597    0.1742 F         1 <0>        -0.1189
     27 C20         7.9724    6.2661   -0.0394 C.cat     1 <0>         0.6123
     28 N4          8.9413    6.4586   -0.9346 N.pl3     1 <0>        -0.7452
     29 N5          7.6926    7.2148    0.8544 N.pl3     1 <0>        -0.7509
     30 H2         -0.9327    1.8738   -0.5213 H         1 <0>         0.1447
     31 H3          1.1649    3.1479   -0.4239 H         1 <0>         0.1324
     32 H4         -0.8987   -0.5821   -0.3994 H         1 <0>         0.1404
     33 H5         -0.6507   -2.3978    0.6056 H         1 <0>         0.0766
     34 H6         -0.5104   -2.4865   -1.1666 H         1 <0>         0.0769
     35 H7          0.8896   -4.5573   -0.9026 H         1 <0>         0.1093
     36 H8          1.7339   -4.1308    1.3715 H         1 <0>         0.1015
     37 H9          0.0793   -4.2306    2.0239 H         1 <0>         0.0829
     38 H10         1.6046   -6.4718    0.6180 H         1 <0>         0.0906
     39 H11         1.2391   -6.3779    2.3583 H         1 <0>         0.1156
     40 H12        -0.3808   -7.8458    1.1864 H         1 <0>         0.1367
     41 H13        -1.1872   -6.4054    1.8507 H         1 <0>         0.1318
     42 H14        -0.2627   -6.6955   -0.9185 H         1 <0>         0.4302
     43 H15        -1.8472   -4.6384    0.4471 H         1 <0>         0.1352
     44 H16        -1.5529   -4.7073   -1.3064 H         1 <0>         0.1375
     45 H17         3.8766   -0.8041    0.8776 H         1 <0>         0.3955
     46 H18         5.2988    5.9711   -0.2290 H         1 <0>         0.1545
     47 H19         7.7172    1.6640    0.1559 H         1 <0>         0.1672
     48 H20         9.0951    5.8018   -1.6316 H         1 <0>         0.4497
     49 H21         6.9876    7.0747    1.5058 H         1 <0>         0.4479
     50 H22         8.1939    8.0452    0.8534 H         1 <0>         0.4353
     51 H23         9.4924    7.2555   -0.8890 H         1 <0>         0.4358
     52 H24        -1.8204   -6.8796   -0.4179 H         1 <0>         0.4365
@<TRIPOS>BOND
     1    1    6 ar
     2    1    2 ar
     3    1   30 1
     4    2    3 ar
     5    2   31 1
     6    3    4 ar
     7    3   16 1
     8    4    5 ar
     9    4   15 1
    10    5    6 ar
    11    5    7 1
    12    6   32 1
    13    7    8 1
    14    8    9 1
    15    8   33 1
    16    8   34 1
    17    9   14 1
    18    9   10 1
    19    9   35 1
    20   10   11 1
    21   10   36 1
    22   10   37 1
    23   11   12 1
    24   11   38 1
    25   11   39 1
    26   12   13 1
    27   12   40 1
    28   12   41 1
    29   13   14 1
    30   13   42 1
    31   13   52 1
    32   14   43 1
    33   14   44 1
    34   15   45 1
    35   16   25 2
    36   16   17 1
    37   17   18 1
    38   17   19 1
    39   19   24 ar
    40   19   20 ar
    41   20   21 ar
    42   20   46 1
    43   21   22 ar
    44   21   27 1
    45   22   23 ar
    46   22   26 1
    47   23   24 ar
    48   23   47 1
    49   24   25 1
    50   27   28 2
    51   27   29 1
    52   28   48 1
    53   28   51 1
    54   29   49 1
    55   29   50 1
@<TRIPOS>MOLECULE
CHEMBL209091
   72    75     0     0     0
SMALL
USER_CHARGES

@<TRIPOS>ATOM
      1 C1         -1.3673    1.9192   -0.9542 C.3       1 <0>        -0.1222
      2 C2         -1.1216    0.4342   -0.8809 C.ar      1 <0>        -0.0724
      3 C3         -1.1021   -0.3202   -2.0395 C.ar      1 <0>        -0.1012
      4 C4         -0.8771   -1.6816   -1.9749 C.ar      1 <0>        -0.1360
      5 C5         -0.6705   -2.2919   -0.7463 C.ar      1 <0>         0.0656
      6 C6         -0.6905   -1.5328    0.4148 C.ar      1 <0>        -0.1016
      7 C7         -0.9104   -0.1707    0.3444 C.ar      1 <0>        -0.1036
      8 O1         -0.4494   -3.6311   -0.6801 O.3       1 <0>        -0.6182
      9 P1          1.0922   -4.0509   -0.8787 P.3       1 <0>         2.3073
     10 O2          1.9311   -3.3263    0.1020 O.2       1 <0>        -0.9663
     11 C8          1.2709   -5.8468   -0.6217 C.3       1 <0>        -0.3854
     12 C9          0.9190   -6.1878    0.8034 C.ar      1 <0>        -0.0924
     13 C10         1.8761   -6.0787    1.7955 C.ar      1 <0>        -0.0510
     14 C11         1.5568   -6.3904    3.1025 C.ar      1 <0>        -0.1034
     15 C12         0.2729   -6.8139    3.4199 C.ar      1 <0>         0.1119
     16 C13        -0.6860   -6.9225    2.4214 C.ar      1 <0>        -0.1563
     17 C14        -0.3619   -6.6038    1.1172 C.ar      1 <0>        -0.0677
     18 N1         -0.0538   -7.1310    4.7431 N.pl3     1 <0>        -0.6317
     19 C15        -0.9000   -8.1750    5.0083 C.cat     1 <0>         0.7456
     20 N2         -1.3068   -8.4021    6.2562 N.pl3     1 <0>        -0.7853
     21 N3         -1.3160   -8.9631    4.0184 N.pl3     1 <0>        -0.7943
     22 N4          2.6553   -6.2433   -0.8911 N.am      1 <0>        -0.6932
     23 C16         2.9650   -6.8684   -2.0443 C.2       1 <0>         0.6488
     24 O3          2.1243   -6.9928   -2.9127 O.2       1 <0>        -0.5551
     25 O4          4.2060   -7.3549   -2.2340 O.3       1 <0>        -0.3486
     26 C17         4.4642   -8.0055   -3.4798 C.3       1 <0>         0.1249
     27 C18         5.8939   -8.4809   -3.5114 C.ar      1 <0>        -0.1058
     28 C19         6.8875   -7.6514   -3.9968 C.ar      1 <0>        -0.0915
     29 C20         8.1990   -8.0875   -4.0257 C.ar      1 <0>        -0.1202
     30 C21         8.5169   -9.3528   -3.5689 C.ar      1 <0>        -0.1022
     31 C22         7.5234  -10.1820   -3.0827 C.ar      1 <0>        -0.1223
     32 C23         6.2126   -9.7443   -3.0498 C.ar      1 <0>        -0.0936
     33 O5          1.5635   -3.6728   -2.3710 O.3       1 <0>        -0.6307
     34 C24         2.8261   -3.1753   -2.4426 C.ar      1 <0>         0.0941
     35 C25         3.0629   -1.8376   -2.1612 C.ar      1 <0>        -0.1036
     36 C26         4.3474   -1.3345   -2.2342 C.ar      1 <0>        -0.0948
     37 C27         5.3965   -2.1627   -2.5878 C.ar      1 <0>        -0.0760
     38 C28         5.1631   -3.4962   -2.8691 C.ar      1 <0>        -0.0998
     39 C29         3.8813   -4.0056   -2.7916 C.ar      1 <0>        -0.1345
     40 C30         6.7966   -1.6111   -2.6671 C.3       1 <0>        -0.1197
     41 H1         -0.4161    2.4398   -1.0658 H         1 <0>         0.0788
     42 H2         -2.0050    2.1401   -1.8101 H         1 <0>         0.0725
     43 H3         -1.8584    2.2518   -0.0397 H         1 <0>         0.0722
     44 H4         -1.2633    0.1553   -2.9957 H         1 <0>         0.1382
     45 H5         -0.8623   -2.2705   -2.8801 H         1 <0>         0.1371
     46 H6         -0.5300   -2.0055    1.3724 H         1 <0>         0.1366
     47 H7         -0.9217    0.4214    1.2475 H         1 <0>         0.1374
     48 H8          0.6024   -6.3790   -1.2983 H         1 <0>         0.1440
     49 H9          2.8746   -5.7496    1.5479 H         1 <0>         0.1496
     50 H10         2.3049   -6.3053    3.8768 H         1 <0>         0.1512
     51 H11        -1.6853   -7.2519    2.6650 H         1 <0>         0.1449
     52 H12        -1.1085   -6.6835    0.3409 H         1 <0>         0.1474
     53 H13         0.3191   -6.6115    5.4725 H         1 <0>         0.4462
     54 H14        -1.0039   -7.8281    6.9771 H         1 <0>         0.4432
     55 H15        -0.9331   -8.8715    3.1319 H         1 <0>         0.4429
     56 H16        -2.0020   -9.6287    4.1840 H         1 <0>         0.4412
     57 H17         3.3490   -6.0560   -0.2395 H         1 <0>         0.4202
     58 H18         3.7951   -8.8589   -3.5896 H         1 <0>         0.0813
     59 H19         4.2962   -7.3046   -4.2975 H         1 <0>         0.0840
     60 H20         6.6392   -6.6628   -4.3536 H         1 <0>         0.1258
     61 H21         8.9752   -7.4397   -4.4056 H         1 <0>         0.1294
     62 H22         9.5414   -9.6938   -3.5922 H         1 <0>         0.1280
     63 H23         7.7717  -11.1707   -2.7261 H         1 <0>         0.1274
     64 H24         5.4369  -10.3908   -2.6665 H         1 <0>         0.1225
     65 H25         2.2436   -1.1901   -1.8857 H         1 <0>         0.1313
     66 H26         4.5322   -0.2932   -2.0153 H         1 <0>         0.1363
     67 H27         5.9841   -4.1410   -3.1458 H         1 <0>         0.1320
     68 H28         3.7002   -5.0484   -3.0068 H         1 <0>         0.1179
     69 H29         7.2826   -1.7125   -1.6968 H         1 <0>         0.0765
     70 H30         7.3630   -2.1638   -3.4167 H         1 <0>         0.0700
     71 H31         6.7570   -0.5580   -2.9454 H         1 <0>         0.0721
     72 H32        -1.9061   -9.1413    6.4440 H         1 <0>         0.4444
@<TRIPOS>BOND
     1    1    2 1
     2    1   41 1
     3    1   42 1
     4    1   43 1
     5    2    7 ar
     6    2    3 ar
     7    3    4 ar
     8    3   44 1
     9    4    5 ar
    10    4   45 1
    11    5    6 ar
    12    5    8 1
    13    6    7 ar
    14    6   46 1
    15    7   47 1
    16    8    9 1
    17    9   10 2
    18    9   11 1
    19    9   33 1
    20   11   12 1
    21   11   22 1
    22   11   48 1
    23   12   17 ar
    24   12   13 ar
    25   13   14 ar
    26   13   49 1
    27   14   15 ar
    28   14   50 1
    29   15   16 ar
    30   15   18 1
    31   16   17 ar
    32   16   51 1
    33   17   52 1
    34   18   19 1
    35   18   53 1
    36   19   20 2
    37   19   21 1
    38   20   54 1
    39   20   72 1
    40   21   55 1
    41   21   56 1
    42   22   23 am
    43   22   57 1
    44   23   24 2
    45   23   25 1
    46   25   26 1
    47   26   27 1
    48   26   58 1
    49   26   59 1
    50   27   32 ar
    51   27   28 ar
    52   28   29 ar
    53   28   60 1
    54   29   30 ar
    55   29   61 1
    56   30   31 ar
    57   30   62 1
    58   31   32 ar
    59   31   63 1
    60   32   64 1
    61   33   34 1
    62   34   39 ar
    63   34   35 ar
    64   35   36 ar
    65   35   65 1
    66   36   37 ar
    67   36   66 1
    68   37   38 ar
    69   37   40 1
    70   38   39 ar
    71   38   67 1
    72   39   68 1
    73   40   69 1
    74   40   70 1
    75   40   71 1
@<TRIPOS>MOLECULE
CHEMBL209091__1
   72    75     0     0     0
SMALL
USER_CHARGES

@<TRIPOS>ATOM
      1 C1          3.0312    0.3767   -2.4920 C.3       1 <0>        -0.1214
      2 C2          2.6433   -1.0724   -2.3478 C.ar      1 <0>        -0.0741
      3 C3          2.7076   -1.9162   -3.4412 C.ar      1 <0>        -0.1023
      4 C4          2.3526   -3.2449   -3.3117 C.ar      1 <0>        -0.1377
      5 C5          1.9312   -3.7325   -2.0831 C.ar      1 <0>         0.0652
      6 C6          1.8675   -2.8838   -0.9875 C.ar      1 <0>        -0.1015
      7 C7          2.2290   -1.5572   -1.1209 C.ar      1 <0>        -0.1021
      8 O1          1.5809   -5.0391   -1.9532 O.3       1 <0>        -0.6109
      9 P1          2.8198   -6.0224   -1.6526 P.3       1 <0>         2.3053
     10 O2          3.5430   -5.5514   -0.4503 O.2       1 <0>        -0.9655
     11 C8          2.1987   -7.7120   -1.3650 C.3       1 <0>        -0.3860
     12 C9          3.3344   -8.5951   -0.9163 C.ar      1 <0>        -0.0928
     13 C10         3.7542   -8.5633    0.4008 C.ar      1 <0>        -0.0471
     14 C11         4.7948   -9.3714    0.8152 C.ar      1 <0>        -0.0997
     15 C12         5.4196  -10.2165   -0.0925 C.ar      1 <0>         0.1147
     16 C13         4.9956  -10.2461   -1.4146 C.ar      1 <0>        -0.1567
     17 C14         3.9508   -9.4396   -1.8213 C.ar      1 <0>        -0.0711
     18 N1          6.4744  -11.0362    0.3240 N.pl3     1 <0>        -0.6332
     19 C15         6.5576  -12.3272   -0.1262 C.cat     1 <0>         0.7453
     20 N2          7.6263  -13.0668    0.1656 N.pl3     1 <0>        -0.7858
     21 N3          5.5698  -12.8431   -0.8558 N.pl3     1 <0>        -0.7925
     22 N4          1.1643   -7.6822   -0.3281 N.am      1 <0>        -0.6914
     23 C16        -0.1377   -7.7284   -0.6735 C.2       1 <0>         0.6521
     24 O3         -0.4525   -7.8919   -1.8356 O.2       1 <0>        -0.5583
     25 O4         -1.0894   -7.5935    0.2692 O.3       1 <0>        -0.3483
     26 C17        -2.4486   -7.6526   -0.1680 C.3       1 <0>         0.1267
     27 C18        -3.3651   -7.4836    1.0163 C.ar      1 <0>        -0.1067
     28 C19        -3.7832   -8.5909    1.7303 C.ar      1 <0>        -0.0939
     29 C20        -4.6238   -8.4359    2.8166 C.ar      1 <0>        -0.1229
     30 C21        -5.0460   -7.1735    3.1893 C.ar      1 <0>        -0.1026
     31 C22        -4.6272   -6.0660    2.4758 C.ar      1 <0>        -0.1208
     32 C23        -3.7831   -6.2207    1.3921 C.ar      1 <0>        -0.0913
     33 O5          3.8205   -6.0259   -2.9138 O.3       1 <0>        -0.6339
     34 C24         5.1353   -6.0892   -2.5760 C.ar      1 <0>         0.0902
     35 C25         5.7829   -4.9626   -2.0900 C.ar      1 <0>        -0.0958
     36 C26         7.1193   -5.0296   -1.7469 C.ar      1 <0>        -0.0941
     37 C27         7.8117   -6.2181   -1.8879 C.ar      1 <0>        -0.0786
     38 C28         7.1688   -7.3421   -2.3725 C.ar      1 <0>        -0.1078
     39 C29         5.8308   -7.2819   -2.7112 C.ar      1 <0>        -0.1354
     40 C30         9.2697   -6.2882   -1.5133 C.3       1 <0>        -0.1188
     41 H1          4.0968    0.4891   -2.2921 H         1 <0>         0.0776
     42 H2          2.8144    0.7116   -3.5063 H         1 <0>         0.0719
     43 H3          2.4629    0.9773   -1.7817 H         1 <0>         0.0727
     44 H4          3.0354   -1.5360   -4.3975 H         1 <0>         0.1370
     45 H5          2.4027   -3.9035   -4.1662 H         1 <0>         0.1353
     46 H6          1.5397   -3.2610   -0.0300 H         1 <0>         0.1394
     47 H7          2.1838   -0.8971   -0.2673 H         1 <0>         0.1383
     48 H8          1.7755   -8.1058   -2.2891 H         1 <0>         0.1434
     49 H9          3.2681   -7.9056    1.1062 H         1 <0>         0.1520
     50 H10         5.1224   -9.3459    1.8440 H         1 <0>         0.1509
     51 H11         5.4798  -10.9020   -2.1230 H         1 <0>         0.1440
     52 H12         3.6175   -9.4656   -2.8483 H         1 <0>         0.1469
     53 H13         7.1468  -10.6901    0.9316 H         1 <0>         0.4462
     54 H14         8.3457  -12.6911    0.6969 H         1 <0>         0.4433
     55 H15         4.7981  -12.3000   -1.0804 H         1 <0>         0.4420
     56 H16         5.6221  -13.7618   -1.1625 H         1 <0>         0.4410
     57 H17         1.4164   -7.6291    0.6071 H         1 <0>         0.4192
     58 H18        -2.6338   -6.8550   -0.8875 H         1 <0>         0.0843
     59 H19        -2.6372   -8.6175   -0.6386 H         1 <0>         0.0807
     60 H20        -3.4533   -9.5773    1.4392 H         1 <0>         0.1228
     61 H21        -4.9510   -9.3012    3.3740 H         1 <0>         0.1275
     62 H22        -5.7034   -7.0524    4.0376 H         1 <0>         0.1279
     63 H23        -4.9573   -5.0797    2.7667 H         1 <0>         0.1293
     64 H24        -3.4529   -5.3551    0.8369 H         1 <0>         0.1266
     65 H25         5.2426   -4.0339   -1.9803 H         1 <0>         0.1348
     66 H26         7.6239   -4.1529   -1.3685 H         1 <0>         0.1367
     67 H27         7.7120   -8.2691   -2.4824 H         1 <0>         0.1249
     68 H28         5.3279   -8.1614   -3.0852 H         1 <0>         0.1263
     69 H29         9.3622   -6.5698   -0.4644 H         1 <0>         0.0732
     70 H30         9.7691   -7.0318   -2.1345 H         1 <0>         0.0673
     71 H31         9.7325   -5.3139   -1.6701 H         1 <0>         0.0737
     72 H32         7.6852  -13.9810   -0.1533 H         1 <0>         0.4443
@<TRIPOS>BOND
     1    1    2 1
     2    1   41 1
     3    1   42 1
     4    1   43 1
     5    2    7 ar
     6    2    3 ar
     7    3    4 ar
     8    3   44 1
     9    4    5 ar
    10    4   45 1
    11    5    6 ar
    12    5    8 1
    13    6    7 ar
    14    6   46 1
    15    7   47 1
    16    8    9 1
    17    9   10 2
    18    9   11 1
    19    9   33 1
    20   11   12 1
    21   11   22 1
    22   11   48 1
    23   12   17 ar
    24   12   13 ar
    25   13   14 ar
    26   13   49 1
    27   14   15 ar
    28   14   50 1
    29   15   16 ar
    30   15   18 1
    31   16   17 ar
    32   16   51 1
    33   17   52 1
    34   18   19 1
    35   18   53 1
    36   19   20 2
    37   19   21 1
    38   20   54 1
    39   20   72 1
    40   21   55 1
    41   21   56 1
    42   22   23 am
    43   22   57 1
    44   23   24 2
    45   23   25 1
    46   25   26 1
    47   26   27 1
    48   26   58 1
    49   26   59 1
    50   27   32 ar
    51   27   28 ar
    52   28   29 ar
    53   28   60 1
    54   29   30 ar
    55   29   61 1
    56   30   31 ar
    57   30   62 1
    58   31   32 ar
    59   31   63 1
    60   32   64 1
    61   33   34 1
    62   34   39 ar
    63   34   35 ar
    64   35   36 ar
    65   35   65 1
    66   36   37 ar
    67   36   66 1
    68   37   38 ar
    69   37   40 1
    70   38   39 ar
    71   38   67 1
    72   39   68 1
    73   40   69 1
    74   40   70 1
    75   40   71 1
@<TRIPOS>MOLECULE
CHEMBL134926
   34    35     0     0     0
SMALL
USER_CHARGES

@<TRIPOS>ATOM
      1 C1          0.5401    0.8258    0.9839 C.2       1 <0>        -0.1784
      2 C2          0.4365   -0.4651    1.2229 C.2       1 <0>         0.0299
      3 C3         -0.8485   -1.2109    0.9370 C.3       1 <0>        -0.1038
      4 C4         -1.2328   -2.0159    2.1850 C.3       1 <0>        -0.0540
      5 C5         -0.0436   -2.8949    2.5923 C.3       1 <0>        -0.1605
      6 C6          1.1761   -2.0140    2.7494 C.2       1 <0>         0.4857
      7 O1          1.8528   -2.0604    3.7494 O.2       1 <0>        -0.4306
      8 O2          1.4880   -1.1743    1.7315 O.3       1 <0>        -0.3063
      9 C7         -2.4230   -2.8876    1.8771 C.ar      1 <0>        -0.0597
     10 C8         -2.3385   -3.8441    0.8821 C.ar      1 <0>        -0.0806
     11 C9         -3.4275   -4.6446    0.5974 C.ar      1 <0>        -0.1060
     12 C10        -4.6081   -4.4879    1.3117 C.ar      1 <0>         0.0961
     13 C11        -4.6896   -3.5264    2.3103 C.ar      1 <0>        -0.1496
     14 C12        -3.5953   -2.7329    2.5939 C.ar      1 <0>        -0.0765
     15 N1         -5.7133   -5.2970    1.0255 N.pl3     1 <0>        -0.6317
     16 C13        -6.9765   -4.7681    1.0595 C.cat     1 <0>         0.7455
     17 N2         -8.0352   -5.5619    0.9074 N.pl3     1 <0>        -0.7859
     18 N3         -7.1460   -3.4600    1.2447 N.pl3     1 <0>        -0.7959
     19 H1          1.4670    1.3405    1.1902 H         1 <0>         0.1187
     20 H2         -0.3003    1.3690    0.5776 H         1 <0>         0.1343
     21 H3         -1.6402   -0.4995    0.7020 H         1 <0>         0.1017
     22 H4         -0.6995   -1.8882    0.0960 H         1 <0>         0.0940
     23 H5         -1.4782   -1.3334    2.9987 H         1 <0>         0.1015
     24 H6         -0.2617   -3.3900    3.5386 H         1 <0>         0.1145
     25 H7          0.1412   -3.6414    1.8199 H         1 <0>         0.1139
     26 H8         -1.4202   -3.9652    0.3267 H         1 <0>         0.1442
     27 H9         -3.3610   -5.3912   -0.1800 H         1 <0>         0.1423
     28 H10        -5.6065   -3.4019    2.8673 H         1 <0>         0.1378
     29 H11        -3.6565   -1.9882    3.3737 H         1 <0>         0.1446
     30 H12        -5.5850   -6.2324    0.8029 H         1 <0>         0.4437
     31 H13        -8.9296   -5.1873    0.9315 H         1 <0>         0.4442
     32 H14        -6.3936   -2.8551    1.1495 H         1 <0>         0.4431
     33 H15        -8.0218   -3.1122    1.4747 H         1 <0>         0.4412
     34 H16        -7.9118   -6.5145    0.7725 H         1 <0>         0.4424
@<TRIPOS>BOND
     1    1    2 2
     2    1   19 1
     3    1   20 1
     4    2    8 1
     5    2    3 1
     6    3    4 1
     7    3   21 1
     8    3   22 1
     9    4    5 1
    10    4    9 1
    11    4   23 1
    12    5    6 1
    13    5   24 1
    14    5   25 1
    15    6    7 2
    16    6    8 1
    17    9   14 ar
    18    9   10 ar
    19   10   11 ar
    20   10   26 1
    21   11   12 ar
    22   11   27 1
    23   12   13 ar
    24   12   15 1
    25   13   14 ar
    26   13   28 1
    27   14   29 1
    28   15   16 1
    29   15   30 1
    30   16   17 2
    31   16   18 1
    32   17   31 1
    33   17   34 1
    34   18   32 1
    35   18   33 1
@<TRIPOS>MOLECULE
CHEMBL134926__1
   34    35     0     0     0
SMALL
USER_CHARGES

@<TRIPOS>ATOM
      1 C1         -1.2342    2.2752   -1.6393 C.2       1 <0>        -0.1772
      2 C2         -1.0481    1.0462   -1.2040 C.2       1 <0>         0.0303
      3 C3         -2.2018    0.0730   -1.0977 C.3       1 <0>        -0.1046
      4 C4         -1.8025   -1.2341   -1.7943 C.3       1 <0>        -0.0540
      5 C5         -0.4759   -1.7254   -1.2015 C.3       1 <0>        -0.1611
      6 C6          0.5406   -0.6098   -1.3027 C.2       1 <0>         0.4866
      7 O1          1.6303   -0.8028   -1.7877 O.2       1 <0>        -0.4331
      8 O2          0.1939    0.6082   -0.8394 O.3       1 <0>        -0.3057
      9 C7         -2.8713   -2.2726   -1.5703 C.ar      1 <0>        -0.0597
     10 C8         -3.1969   -2.6611   -0.2838 C.ar      1 <0>        -0.0806
     11 C9         -4.1759   -3.6127   -0.0751 C.ar      1 <0>        -0.1061
     12 C10        -4.8335   -4.1794   -1.1590 C.ar      1 <0>         0.0962
     13 C11        -4.5042   -3.7871   -2.4498 C.ar      1 <0>        -0.1496
     14 C12        -3.5282   -2.8309   -2.6515 C.ar      1 <0>        -0.0766
     15 N1         -5.8256   -5.1441   -0.9511 N.pl3     1 <0>        -0.6318
     16 C13        -5.9322   -6.2116   -1.8029 C.cat     1 <0>         0.7456
     17 N2         -6.9486   -7.0635   -1.6790 N.pl3     1 <0>        -0.7859
     18 N3         -5.0195   -6.3977   -2.7550 N.pl3     1 <0>        -0.7958
     19 H1         -0.3978    2.9545   -1.7127 H         1 <0>         0.1190
     20 H2         -2.2224    2.6023   -1.9271 H         1 <0>         0.1352
     21 H3         -2.4196   -0.1233   -0.0479 H         1 <0>         0.0942
     22 H4         -3.0816    0.4935   -1.5846 H         1 <0>         0.1026
     23 H5         -1.6815   -1.0562   -2.8629 H         1 <0>         0.1015
     24 H6         -0.6203   -1.9951   -0.1552 H         1 <0>         0.1134
     25 H7         -0.1244   -2.5927   -1.7603 H         1 <0>         0.1137
     26 H8         -2.6849   -2.2203    0.5587 H         1 <0>         0.1442
     27 H9         -4.4296   -3.9160    0.9299 H         1 <0>         0.1423
     28 H10        -5.0135   -4.2263   -3.2949 H         1 <0>         0.1378
     29 H11        -3.2749   -2.5219   -3.6549 H         1 <0>         0.1446
     30 H12        -6.4378   -5.0569   -0.2037 H         1 <0>         0.4436
     31 H13        -7.0242   -7.8194   -2.2822 H         1 <0>         0.4442
     32 H14        -4.1796   -5.9136   -2.7229 H         1 <0>         0.4432
     33 H15        -5.1948   -7.0172   -3.4805 H         1 <0>         0.4413
     34 H16        -7.6133   -6.9280   -0.9857 H         1 <0>         0.4423
@<TRIPOS>BOND
     1    1    2 2
     2    1   19 1
     3    1   20 1
     4    2    8 1
     5    2    3 1
     6    3    4 1
     7    3   21 1
     8    3   22 1
     9    4    5 1
    10    4    9 1
    11    4   23 1
    12    5    6 1
    13    5   24 1
    14    5   25 1
    15    6    7 2
    16    6    8 1
    17    9   14 ar
    18    9   10 ar
    19   10   11 ar
    20   10   26 1
    21   11   12 ar
    22   11   27 1
    23   12   13 ar
    24   12   15 1
    25   13   14 ar
    26   13   28 1
    27   14   29 1
    28   15   16 1
    29   15   30 1
    30   16   17 2
    31   16   18 1
    32   17   31 1
    33   17   34 1
    34   18   32 1
    35   18   33 1
@<TRIPOS>MOLECULE
CHEMBL442201
   57    60     0     0     0
SMALL
USER_CHARGES

@<TRIPOS>ATOM
      1 C1          0.5909   -0.3377    0.7758 C.3       1 <0>        -0.1727
      2 C2         -0.3070    0.1122   -0.3785 C.3       1 <0>        -0.1145
      3 C3          0.3372   -0.2820   -1.7091 C.3       1 <0>        -0.1709
      4 C4         -1.6743   -0.5628   -0.2540 C.3       1 <0>         0.0847
      5 C5         -2.3465   -0.0938    1.0095 C.ar      1 <0>        -0.0998
      6 C6         -2.2494    1.2456    1.3520 C.ar      1 <0>        -0.1216
      7 C7         -2.8566    1.7185    2.5056 C.ar      1 <0>         0.1625
      8 C8         -3.5647    0.8437    3.3200 C.ar      1 <0>        -0.0968
      9 C9         -3.6573   -0.4887    2.9758 C.ar      1 <0>        -0.0796
     10 C10        -3.0487   -0.9595    1.8219 C.ar      1 <0>        -0.1010
     11 C11        -3.1699   -2.4250    1.4889 C.3       1 <0>        -0.1066
     12 C12        -2.7947   -2.6558    0.0245 C.3       1 <0>        -0.0044
     13 N1         -1.4951   -2.0173   -0.2334 N.4       1 <0>        -0.5058
     14 N2         -2.7560    3.0706    2.8481 N.am      1 <0>        -0.6698
     15 C13        -3.7744    3.6820    3.4850 C.2       1 <0>         0.5597
     16 O1         -4.8170    3.0866    3.6758 O.2       1 <0>        -0.4974
     17 C14        -3.6236    5.0765    3.9514 C.ar      1 <0>        -0.1089
     18 C15        -2.4173    5.7619    3.7228 C.ar      1 <0>        -0.0857
     19 C16        -2.2551    7.0429    4.1416 C.ar      1 <0>        -0.0899
     20 C17        -3.3014    7.7022    4.8141 C.ar      1 <0>        -0.0454
     21 C18        -3.1535    9.0264    5.2544 C.ar      1 <0>        -0.0216
     22 C19        -4.2009    9.6472    5.9124 C.ar      1 <0>        -0.1346
     23 C20        -5.4068    8.9625    6.1414 C.ar      1 <0>        -0.0935
     24 C21        -5.5694    7.6811    5.7231 C.ar      1 <0>        -0.0672
     25 C22        -4.5231    7.0215    5.0509 C.ar      1 <0>        -0.0247
     26 C23        -4.6735    5.6995    4.6052 C.ar      1 <0>        -0.0334
     27 C24        -4.0498   11.0434    6.3792 C.cat     1 <0>         0.5976
     28 N3         -5.0540   11.6459    7.0128 N.pl3     1 <0>        -0.7559
     29 N4         -2.9097   11.6971    6.1656 N.pl3     1 <0>        -0.7609
     30 H1          1.5250    0.2234    0.7496 H         1 <0>         0.0865
     31 H2          0.0837   -0.1548    1.7231 H         1 <0>         0.0736
     32 H3          0.8036   -1.4022    0.6771 H         1 <0>         0.0552
     33 H4         -0.4313    1.1945   -0.3415 H         1 <0>         0.1177
     34 H5          1.3113    0.1989   -1.7978 H         1 <0>         0.0867
     35 H6          0.4615   -1.3642   -1.7461 H         1 <0>         0.0543
     36 H7         -0.3024    0.0385   -2.5315 H         1 <0>         0.0749
     37 H8         -2.2897   -0.2886   -1.1109 H         1 <0>         0.1489
     38 H9         -1.6988    1.9242    0.7174 H         1 <0>         0.1386
     39 H10        -4.0405    1.2054    4.2194 H         1 <0>         0.1464
     40 H11        -4.2076   -1.1694    3.6084 H         1 <0>         0.1416
     41 H12        -2.5001   -2.9987    2.1294 H         1 <0>         0.1053
     42 H13        -4.1966   -2.7508    1.6556 H         1 <0>         0.1257
     43 H14        -2.7219   -3.7258   -0.1703 H         1 <0>         0.1430
     44 H15        -3.5535   -2.2144   -0.6216 H         1 <0>         0.1356
     45 H16        -1.1383   -2.3263   -1.1252 H         1 <0>         0.4333
     46 H17        -1.9533    3.5684    2.6274 H         1 <0>         0.4152
     47 H18        -1.6097    5.2629    3.2078 H         1 <0>         0.1369
     48 H19        -1.3226    7.5565    3.9591 H         1 <0>         0.1483
     49 H20        -2.2289    9.5571    5.0814 H         1 <0>         0.1467
     50 H21        -6.2140    9.4617    6.6568 H         1 <0>         0.1412
     51 H22        -6.5016    7.1675    5.9065 H         1 <0>         0.1556
     52 H23        -5.5998    5.1704    4.7743 H         1 <0>         0.1579
     53 H24        -5.8846   11.1697    7.1684 H         1 <0>         0.4458
     54 H25        -2.1782   11.2581    5.7040 H         1 <0>         0.4432
     55 H26        -2.8107   12.6122    6.4715 H         1 <0>         0.4363
     56 H27        -4.9549   12.5610    7.3187 H         1 <0>         0.4359
     57 H28        -0.8452   -2.2672    0.4968 H         1 <0>         0.4277
@<TRIPOS>BOND
     1    1    2 1
     2    1   30 1
     3    1   31 1
     4    1   32 1
     5    2    3 1
     6    2    4 1
     7    2   33 1
     8    3   34 1
     9    3   35 1
    10    3   36 1
    11    4   13 1
    12    4    5 1
    13    4   37 1
    14    5   10 ar
    15    5    6 ar
    16    6    7 ar
    17    6   38 1
    18    7    8 ar
    19    7   14 1
    20    8    9 ar
    21    8   39 1
    22    9   10 ar
    23    9   40 1
    24   10   11 1
    25   11   12 1
    26   11   41 1
    27   11   42 1
    28   12   13 1
    29   12   43 1
    30   12   44 1
    31   13   45 1
    32   13   57 1
    33   14   15 am
    34   14   46 1
    35   15   16 2
    36   15   17 1
    37   17   26 ar
    38   17   18 ar
    39   18   19 ar
    40   18   47 1
    41   19   20 ar
    42   19   48 1
    43   20   25 ar
    44   20   21 ar
    45   21   22 ar
    46   21   49 1
    47   22   23 ar
    48   22   27 1
    49   23   24 ar
    50   23   50 1
    51   24   25 ar
    52   24   51 1
    53   25   26 ar
    54   26   52 1
    55   27   28 2
    56   27   29 1
    57   28   53 1
    58   28   56 1
    59   29   54 1
    60   29   55 1
@<TRIPOS>MOLECULE
CHEMBL442201__1
   56    59     0     0     0
SMALL
USER_CHARGES

@<TRIPOS>ATOM
      1 C1          0.5071   -0.1730   -0.8393 C.3       1 <0>        -0.1365
      2 C2         -0.3003    0.1234    0.4260 C.3       1 <0>        -0.0853
      3 C3         -0.4637    1.6364    0.5840 C.3       1 <0>        -0.1530
      4 C4         -1.6795   -0.5298    0.3156 C.3       1 <0>         0.1300
      5 C5         -1.5220   -2.0279    0.3118 C.ar      1 <0>        -0.0486
      6 C6         -0.6156   -2.5969    1.1928 C.ar      1 <0>        -0.1361
      7 C7         -0.4409   -3.9721    1.2265 C.ar      1 <0>         0.1329
      8 C8         -1.1797   -4.7811    0.3724 C.ar      1 <0>        -0.1155
      9 C9         -2.0790   -4.2104   -0.5034 C.ar      1 <0>        -0.1009
     10 C10        -2.2506   -2.8339   -0.5374 C.ar      1 <0>        -0.0724
     11 C11        -3.2375   -2.2583   -1.5207 C.3       1 <0>        -0.0781
     12 C12        -3.5845   -0.8211   -1.1316 C.3       1 <0>         0.0528
     13 N1         -2.3318   -0.0791   -0.9178 N.3       1 <0>        -0.6756
     14 N2          0.4753   -4.5420    2.1160 N.am      1 <0>        -0.6617
     15 C13         0.2261   -5.7506    2.6578 C.2       1 <0>         0.5513
     16 O1         -0.8343   -6.3054    2.4443 O.2       1 <0>        -0.5027
     17 C14         1.2421   -6.4016    3.5116 C.ar      1 <0>        -0.0957
     18 C15         2.4646   -5.7524    3.7595 C.ar      1 <0>        -0.0823
     19 C16         3.4130   -6.3300    4.5402 C.ar      1 <0>        -0.0930
     20 C17         3.1796   -7.5945    5.1133 C.ar      1 <0>        -0.0496
     21 C18         4.1472   -8.2080    5.9236 C.ar      1 <0>        -0.0177
     22 C19         3.8876   -9.4515    6.4730 C.ar      1 <0>        -0.1426
     23 C20         2.6660  -10.1009    6.2252 C.ar      1 <0>        -0.0972
     24 C21         1.7172   -9.5238    5.4441 C.ar      1 <0>        -0.0670
     25 C22         1.9505   -8.2596    4.8706 C.ar      1 <0>        -0.0221
     26 C23         0.9803   -7.6436    4.0654 C.ar      1 <0>        -0.0418
     27 C24         4.9049  -10.1030    7.3278 C.cat     1 <0>         0.5994
     28 N3          4.6608  -11.2993    7.8590 N.pl3     1 <0>        -0.7588
     29 N4          6.0641   -9.4929    7.5657 N.pl3     1 <0>        -0.7629
     30 H1          1.4897    0.2923   -0.7607 H         1 <0>         0.0461
     31 H2          0.6236   -1.2509   -0.9519 H         1 <0>         0.0506
     32 H3         -0.0166    0.2284   -1.7069 H         1 <0>         0.0699
     33 H4          0.2235   -0.2781    1.2936 H         1 <0>         0.0714
     34 H5         -0.8944    2.0524   -0.3268 H         1 <0>         0.0611
     35 H6         -1.1239    1.8446    1.4260 H         1 <0>         0.0520
     36 H7          0.5106    2.0901    0.7654 H         1 <0>         0.0590
     37 H8         -2.2865   -0.2366    1.1721 H         1 <0>         0.0511
     38 H9         -0.0424   -1.9659    1.8559 H         1 <0>         0.1269
     39 H10        -1.0500   -5.8531    0.3940 H         1 <0>         0.1330
     40 H11        -2.6534   -4.8390   -1.1676 H         1 <0>         0.1279
     41 H12        -2.8005   -2.2673   -2.5193 H         1 <0>         0.0859
     42 H13        -4.1446   -2.8627   -1.5189 H         1 <0>         0.0785
     43 H14        -4.1555   -0.3524   -1.9331 H         1 <0>         0.0831
     44 H15        -4.1708   -0.8219   -0.2127 H         1 <0>         0.0367
     45 H16        -2.5000    0.9155   -0.8953 H         1 <0>         0.3485
     46 H17         1.2903   -4.0674    2.3431 H         1 <0>         0.4096
     47 H18         2.6513   -4.7823    3.3231 H         1 <0>         0.1398
     48 H19         4.3473   -5.8194    4.7214 H         1 <0>         0.1471
     49 H20         5.0877   -7.7135    6.1169 H         1 <0>         0.1448
     50 H21         2.4798  -11.0712    6.6614 H         1 <0>         0.1384
     51 H22         0.7834  -10.0351    5.2623 H         1 <0>         0.1542
     52 H23         0.0380   -8.1361    3.8759 H         1 <0>         0.1577
     53 H24         3.8162  -11.7437    7.6857 H         1 <0>         0.4454
     54 H25         6.2419   -8.6214    7.1787 H         1 <0>         0.4434
     55 H26         6.7309   -9.9200    8.1260 H         1 <0>         0.4345
     56 H27         5.3276  -11.7263    8.4193 H         1 <0>         0.4340
@<TRIPOS>BOND
     1    1    2 1
     2    1   30 1
     3    1   31 1
     4    1   32 1
     5    2    3 1
     6    2    4 1
     7    2   33 1
     8    3   34 1
     9    3   35 1
    10    3   36 1
    11    4   13 1
    12    4    5 1
    13    4   37 1
    14    5   10 ar
    15    5    6 ar
    16    6    7 ar
    17    6   38 1
    18    7    8 ar
    19    7   14 1
    20    8    9 ar
    21    8   39 1
    22    9   10 ar
    23    9   40 1
    24   10   11 1
    25   11   12 1
    26   11   41 1
    27   11   42 1
    28   12   13 1
    29   12   43 1
    30   12   44 1
    31   13   45 1
    32   14   15 am
    33   14   46 1
    34   15   16 2
    35   15   17 1
    36   17   26 ar
    37   17   18 ar
    38   18   19 ar
    39   18   47 1
    40   19   20 ar
    41   19   48 1
    42   20   25 ar
    43   20   21 ar
    44   21   22 ar
    45   21   49 1
    46   22   23 ar
    47   22   27 1
    48   23   24 ar
    49   23   50 1
    50   24   25 ar
    51   24   51 1
    52   25   26 ar
    53   26   52 1
    54   27   28 2
    55   27   29 1
    56   28   53 1
    57   28   56 1
    58   29   54 1
    59   29   55 1
@<TRIPOS>MOLECULE
CHEMBL442201__2
   57    60     0     0     0
SMALL
USER_CHARGES

@<TRIPOS>ATOM
      1 C1          1.1640   -0.5677    0.8106 C.3       1 <0>        -0.1701
      2 C2          0.3256   -0.1420   -0.3964 C.3       1 <0>        -0.1144
      3 C3          0.9766   -0.6634   -1.6790 C.3       1 <0>        -0.1699
      4 C4         -1.0845   -0.7218   -0.2679 C.3       1 <0>         0.0851
      5 C5         -1.9229   -0.2500   -1.4267 C.ar      1 <0>        -0.1000
      6 C6         -1.7969    1.0665   -1.8410 C.ar      1 <0>        -0.1211
      7 C7         -2.5531    1.5413   -2.9021 C.ar      1 <0>         0.1619
      8 C8         -3.4401    0.6916   -3.5510 C.ar      1 <0>        -0.0965
      9 C9         -3.5610   -0.6181   -3.1360 C.ar      1 <0>        -0.0798
     10 C10        -2.8032   -1.0911   -2.0750 C.ar      1 <0>        -0.1008
     11 C11        -2.9626   -2.5318   -1.6603 C.3       1 <0>        -0.1068
     12 C12        -2.3682   -2.7381   -0.2666 C.3       1 <0>        -0.0041
     13 N1         -1.0054   -2.1853   -0.2508 N.4       1 <0>        -0.5065
     14 N2         -2.4235    2.8705   -3.3171 N.am      1 <0>        -0.6695
     15 C13        -2.5637    3.1865   -4.6197 C.2       1 <0>         0.5599
     16 O1         -2.7210    2.3077   -5.4448 O.2       1 <0>        -0.4982
     17 C14        -2.5261    4.6016   -5.0452 C.ar      1 <0>        -0.1089
     18 C15        -2.3382    5.6133   -4.0868 C.ar      1 <0>        -0.0858
     19 C16        -2.3001    6.9199   -4.4531 C.ar      1 <0>        -0.0897
     20 C17        -2.4496    7.2768   -5.8066 C.ar      1 <0>        -0.0454
     21 C18        -2.4126    8.6217   -6.2054 C.ar      1 <0>        -0.0215
     22 C19        -2.5624    8.9404   -7.5440 C.ar      1 <0>        -0.1347
     23 C20        -2.7504    7.9295   -8.5022 C.ar      1 <0>        -0.0934
     24 C21        -2.7891    6.6226   -8.1363 C.ar      1 <0>        -0.0673
     25 C22        -2.6399    6.2655   -6.7828 C.ar      1 <0>        -0.0248
     26 C23        -2.6707    4.9202   -6.3851 C.ar      1 <0>        -0.0335
     27 C24        -2.5246   10.3572   -7.9697 C.cat     1 <0>         0.5976
     28 N3         -2.6680   10.6699   -9.2559 N.pl3     1 <0>        -0.7559
     29 N4         -2.3472   11.3192   -7.0665 N.pl3     1 <0>        -0.7609
     30 H1          2.1865   -0.2111    0.6867 H         1 <0>         0.0869
     31 H2          0.7376   -0.1404    1.7181 H         1 <0>         0.0759
     32 H3          1.1652   -1.6551    0.8868 H         1 <0>         0.0525
     33 H4          0.2690    0.9459   -0.4339 H         1 <0>         0.1178
     34 H5          1.9811   -0.2503   -1.7705 H         1 <0>         0.0857
     35 H6          1.0331   -1.7513   -1.6415 H         1 <0>         0.0519
     36 H7          0.3793   -0.3600   -2.5389 H         1 <0>         0.0747
     37 H8         -1.5321   -0.3752    0.6635 H         1 <0>         0.1494
     38 H9         -1.1070    1.7256   -1.3351 H         1 <0>         0.1386
     39 H10        -4.0331    1.0553   -4.3771 H         1 <0>         0.1466
     40 H11        -4.2508   -1.2792   -3.6395 H         1 <0>         0.1415
     41 H12        -4.0216   -2.7892   -1.6443 H         1 <0>         0.1258
     42 H13        -2.4453   -3.1735   -2.3735 H         1 <0>         0.1051
     43 H14        -2.9807   -2.2218    0.4726 H         1 <0>         0.1357
     44 H15        -2.3338   -3.8032   -0.0375 H         1 <0>         0.1429
     45 H16        -0.5015   -2.5058   -1.0640 H         1 <0>         0.4277
     46 H17        -2.2328    3.5650   -2.6673 H         1 <0>         0.4154
     47 H18        -2.2230    5.3476   -3.0463 H         1 <0>         0.1371
     48 H19        -2.1554    7.6860   -3.7057 H         1 <0>         0.1484
     49 H20        -2.2687    9.4025   -5.4732 H         1 <0>         0.1467
     50 H21        -2.8660    8.1957   -9.5425 H         1 <0>         0.1412
     51 H22        -2.9347    5.8568   -8.8838 H         1 <0>         0.1555
     52 H23        -2.8101    4.1392   -7.1180 H         1 <0>         0.1578
     53 H24        -2.7973    9.9691   -9.9139 H         1 <0>         0.4457
     54 H25        -2.2426   11.0914   -6.1294 H         1 <0>         0.4433
     55 H26        -2.3224   12.2479   -7.3455 H         1 <0>         0.4363
     56 H27        -2.6433   11.5986   -9.5349 H         1 <0>         0.4360
     57 H28        -0.5280   -2.4879    0.5850 H         1 <0>         0.4332
@<TRIPOS>BOND
     1    1    2 1
     2    1   30 1
     3    1   31 1
     4    1   32 1
     5    2    3 1
     6    2    4 1
     7    2   33 1
     8    3   34 1
     9    3   35 1
    10    3   36 1
    11    4   13 1
    12    4    5 1
    13    4   37 1
    14    5   10 ar
    15    5    6 ar
    16    6    7 ar
    17    6   38 1
    18    7    8 ar
    19    7   14 1
    20    8    9 ar
    21    8   39 1
    22    9   10 ar
    23    9   40 1
    24   10   11 1
    25   11   12 1
    26   11   41 1
    27   11   42 1
    28   12   13 1
    29   12   43 1
    30   12   44 1
    31   13   45 1
    32   13   57 1
    33   14   15 am
    34   14   46 1
    35   15   16 2
    36   15   17 1
    37   17   26 ar
    38   17   18 ar
    39   18   19 ar
    40   18   47 1
    41   19   20 ar
    42   19   48 1
    43   20   25 ar
    44   20   21 ar
    45   21   22 ar
    46   21   49 1
    47   22   23 ar
    48   22   27 1
    49   23   24 ar
    50   23   50 1
    51   24   25 ar
    52   24   51 1
    53   25   26 ar
    54   26   52 1
    55   27   28 2
    56   27   29 1
    57   28   53 1
    58   28   56 1
    59   29   54 1
    60   29   55 1
@<TRIPOS>MOLECULE
CHEMBL442201__3
   56    59     0     0     0
SMALL
USER_CHARGES

@<TRIPOS>ATOM
      1 C1         -0.0347    1.5193    0.0285 C.3       1 <0>        -0.1422
      2 C2         -0.0125   -0.0105    0.0150 C.3       1 <0>        -0.0869
      3 C3          0.7209   -0.5209    1.2571 C.3       1 <0>        -0.1527
      4 C4         -1.4474   -0.5414    0.0159 C.3       1 <0>         0.1296
      5 C5         -1.4212   -2.0471   -0.0231 C.ar      1 <0>        -0.0880
      6 C6         -0.5120   -2.6681   -0.8651 C.ar      1 <0>        -0.1314
      7 C7         -0.4556   -4.0518   -0.9362 C.ar      1 <0>         0.1314
      8 C8         -1.3162   -4.8168   -0.1590 C.ar      1 <0>        -0.1154
      9 C9         -2.2178   -4.1945    0.6784 C.ar      1 <0>        -0.0994
     10 C10        -2.2711   -2.8098    0.7500 C.ar      1 <0>        -0.0841
     11 C11        -3.2664   -2.1779    1.6893 C.3       1 <0>        -0.1211
     12 C12        -3.4611   -0.7047    1.3300 C.3       1 <0>         0.0536
     13 N1         -2.1374   -0.0711    1.2211 N.3       1 <0>        -0.6705
     14 N2          0.4633   -4.6744   -1.7868 N.am      1 <0>        -0.6619
     15 C13         1.0395   -5.8367   -1.4214 C.2       1 <0>         0.5521
     16 O1          0.6986   -6.3871   -0.3925 O.2       1 <0>        -0.5035
     17 C14         2.0860   -6.4423   -2.2718 C.ar      1 <0>        -0.0962
     18 C15         2.4802   -5.7980   -3.4580 C.ar      1 <0>        -0.0825
     19 C16         3.4390   -6.3344   -4.2552 C.ar      1 <0>        -0.0928
     20 C17         4.0525   -7.5504   -3.8990 C.ar      1 <0>        -0.0494
     21 C18         5.0460   -8.1208   -4.7095 C.ar      1 <0>        -0.0178
     22 C19         5.6304   -9.3172   -4.3317 C.ar      1 <0>        -0.1423
     23 C20         5.2366   -9.9616   -3.1463 C.ar      1 <0>        -0.0970
     24 C21         4.2773   -9.4257   -2.3488 C.ar      1 <0>        -0.0670
     25 C22         3.6635   -8.2100   -2.7050 C.ar      1 <0>        -0.0222
     26 C23         2.6745   -7.6367   -1.8912 C.ar      1 <0>        -0.0415
     27 C24         6.6782   -9.9231   -5.1831 C.cat     1 <0>         0.5994
     28 N3          7.2440  -11.0739   -4.8249 N.pl3     1 <0>        -0.7586
     29 N4          7.0550   -9.3175   -6.3074 N.pl3     1 <0>        -0.7629
     30 H1          0.9876    1.8975    0.0279 H         1 <0>         0.0507
     31 H2         -0.5571    1.8828   -0.8564 H         1 <0>         0.0537
     32 H3         -0.5503    1.8673    0.9235 H         1 <0>         0.0688
     33 H4          0.5032   -0.3586   -0.8800 H         1 <0>         0.0726
     34 H5          0.2052   -0.1728    2.1521 H         1 <0>         0.0583
     35 H6          0.7367   -1.6107    1.2475 H         1 <0>         0.0538
     36 H7          1.7432   -0.1426    1.2565 H         1 <0>         0.0574
     37 H8         -1.9694   -0.1702   -0.8661 H         1 <0>         0.0944
     38 H9          0.1555   -2.0714   -1.4691 H         1 <0>         0.1277
     39 H10        -1.2794   -5.8949   -0.2106 H         1 <0>         0.1381
     40 H11        -2.8875   -4.7889    1.2823 H         1 <0>         0.1271
     41 H12        -4.2205   -2.6989    1.6096 H         1 <0>         0.0828
     42 H13        -2.8980   -2.2552    2.7123 H         1 <0>         0.0788
     43 H14        -3.9839   -0.6263    0.3768 H         1 <0>         0.0770
     44 H15        -4.0403   -0.2109    2.1102 H         1 <0>         0.0860
     45 H16        -1.5838   -0.2462    2.0463 H         1 <0>         0.3442
     46 H17         0.6859   -4.2698   -2.6398 H         1 <0>         0.4100
     47 H18         2.0140   -4.8649   -3.7383 H         1 <0>         0.1396
     48 H19         3.7312   -5.8282   -5.1634 H         1 <0>         0.1472
     49 H20         5.3520   -7.6300   -5.6215 H         1 <0>         0.1450
     50 H21         5.7026  -10.8948   -2.8666 H         1 <0>         0.1386
     51 H22         3.9847   -9.9325   -1.4411 H         1 <0>         0.1542
     52 H23         2.3717   -8.1252   -0.9769 H         1 <0>         0.1575
     53 H24         6.9694  -11.5150   -4.0059 H         1 <0>         0.4454
     54 H25         6.6428   -8.4792   -6.5684 H         1 <0>         0.4434
     55 H26         7.7418   -9.7147   -6.8655 H         1 <0>         0.4346
     56 H27         7.9308  -11.4710   -5.3830 H         1 <0>         0.4341
@<TRIPOS>BOND
     1    1    2 1
     2    1   30 1
     3    1   31 1
     4    1   32 1
     5    2    3 1
     6    2    4 1
     7    2   33 1
     8    3   34 1
     9    3   35 1
    10    3   36 1
    11    4   13 1
    12    4    5 1
    13    4   37 1
    14    5   10 ar
    15    5    6 ar
    16    6    7 ar
    17    6   38 1
    18    7    8 ar
    19    7   14 1
    20    8    9 ar
    21    8   39 1
    22    9   10 ar
    23    9   40 1
    24   10   11 1
    25   11   12 1
    26   11   41 1
    27   11   42 1
    28   12   13 1
    29   12   43 1
    30   12   44 1
    31   13   45 1
    32   14   15 am
    33   14   46 1
    34   15   16 2
    35   15   17 1
    36   17   26 ar
    37   17   18 ar
    38   18   19 ar
    39   18   47 1
    40   19   20 ar
    41   19   48 1
    42   20   25 ar
    43   20   21 ar
    44   21   22 ar
    45   21   49 1
    46   22   23 ar
    47   22   27 1
    48   23   24 ar
    49   23   50 1
    50   24   25 ar
    51   24   51 1
    52   25   26 ar
    53   26   52 1
    54   27   28 2
    55   27   29 1
    56   28   53 1
    57   28   56 1
    58   29   54 1
    59   29   55 1
@<TRIPOS>MOLECULE
CHEMBL158814
   63    64     0     0     0
SMALL
USER_CHARGES

@<TRIPOS>ATOM
      1 C1         -0.0167    1.3793    0.0096 C.ar      1 <0>        -0.0949
      2 C2          1.1670    2.0882    0.0021 C.ar      1 <0>        -0.0578
      3 C3          2.3845    1.4071   -0.0131 C.ar      1 <0>        -0.1491
      4 C4          2.3966    0.0120   -0.0207 C.ar      1 <0>        -0.0576
      5 C5          1.2061   -0.6853   -0.0130 C.ar      1 <0>        -0.0948
      6 C6          0.0021   -0.0041    0.0020 C.ar      1 <0>        -0.0402
      7 C7         -1.2945   -0.7721    0.0107 C.3       1 <0>         0.1470
      8 N1         -1.7283   -1.0135   -1.3676 N.am      1 <0>        -0.7272
      9 C8         -2.8708   -1.6875   -1.6062 C.2       1 <0>         0.5152
     10 O1         -3.5398   -2.0941   -0.6799 O.2       1 <0>        -0.5239
     11 C9         -3.3171   -1.9359   -3.0240 C.3       1 <0>         0.1025
     12 N2         -4.5775   -2.6825   -3.0155 N.am      1 <0>        -0.7192
     13 C10        -5.1688   -3.0197   -4.1788 C.2       1 <0>         0.5324
     14 O2         -4.6575   -2.7050   -5.2325 O.2       1 <0>        -0.5168
     15 C11        -6.4654   -3.7877   -4.1701 C.3       1 <0>         0.1333
     16 H1         -6.3194   -4.7413   -3.6628 H         1 <0>         0.1348
     17 C12        -7.5337   -2.9767   -3.4339 C.3       1 <0>         0.0531
     18 O3         -7.6424   -1.6817   -4.0283 O.3       1 <0>        -0.5596
     19 N3         -6.8992   -4.0291   -5.5484 N.pl3     1 <0>        -1.0963
     20 S1         -7.6743   -5.4399   -5.9374 S.o2      1 <0>         2.6063
     21 O4         -7.9209   -5.3451   -7.3336 O.2       1 <0>        -0.9451
     22 O5         -6.8413   -6.4667   -5.4169 O.2       1 <0>        -0.9489
     23 C13        -9.2388   -5.3802   -5.0212 C.3       1 <0>        -0.6272
     24 C14       -10.0465   -6.6476   -5.3079 C.3       1 <0>        -0.0761
     25 C15        -9.3002   -7.8638   -4.7557 C.3       1 <0>        -0.1466
     26 C16       -10.1079   -9.1312   -5.0425 C.3       1 <0>        -0.1202
     27 C17       -11.4784   -9.0255   -4.3706 C.3       1 <0>        -0.1227
     28 C18       -12.2247   -7.8094   -4.9228 C.3       1 <0>        -0.1239
     29 C19       -11.4170   -6.5419   -4.6361 C.3       1 <0>        -0.1044
     30 C20         3.6576    2.1612   -0.0217 C.cat     1 <0>         0.5998
     31 N4          4.8179    1.5084   -0.0362 N.pl3     1 <0>        -0.7600
     32 N5          3.6428    3.4926   -0.0149 N.pl3     1 <0>        -0.7602
     33 H2         -0.9598    1.9053    0.0260 H         1 <0>         0.1516
     34 H3          1.1510    3.1681    0.0077 H         1 <0>         0.1411
     35 H4          3.3359   -0.5209   -0.0328 H         1 <0>         0.1412
     36 H5          1.2141   -1.7653   -0.0192 H         1 <0>         0.1518
     37 H6         -1.1485   -1.7257    0.5180 H         1 <0>         0.0923
     38 H7         -2.0555   -0.1943    0.5352 H         1 <0>         0.0921
     39 H8         -1.1933   -0.6883   -2.1085 H         1 <0>         0.4068
     40 H9         -3.4630   -0.9823   -3.5313 H         1 <0>         0.1044
     41 H10        -2.5560   -2.5137   -3.5485 H         1 <0>         0.1041
     42 H11        -4.9865   -2.9342   -2.1728 H         1 <0>         0.4127
     43 H12        -8.4924   -3.4904   -3.5040 H         1 <0>         0.0662
     44 H13        -7.2529   -2.8729   -2.3858 H         1 <0>         0.0683
     45 H14        -8.3028   -1.1116   -3.6111 H         1 <0>         0.3872
     46 H15        -6.7325   -3.3627   -6.2331 H         1 <0>         0.4307
     47 H16        -9.0321   -5.3150   -3.9530 H         1 <0>         0.1317
     48 H17        -9.8103   -4.5065   -5.3346 H         1 <0>         0.1381
     49 H18       -10.1771   -6.7594   -6.3843 H         1 <0>         0.0869
     50 H19        -8.3238   -7.9391   -5.2343 H         1 <0>         0.0817
     51 H20        -9.1695   -7.7519   -3.6794 H         1 <0>         0.0736
     52 H21       -10.2385   -9.2430   -6.1188 H         1 <0>         0.0656
     53 H22        -9.5762   -9.9976   -4.6490 H         1 <0>         0.0690
     54 H23       -12.0538   -9.9284   -4.5749 H         1 <0>         0.0650
     55 H24       -11.3477   -8.9137   -3.2943 H         1 <0>         0.0628
     56 H25       -12.3553   -7.9212   -5.9992 H         1 <0>         0.0653
     57 H26       -13.2010   -7.7341   -4.4442 H         1 <0>         0.0665
     58 H27       -11.2863   -6.4301   -3.5597 H         1 <0>         0.0666
     59 H28       -11.9487   -5.6755   -5.0295 H         1 <0>         0.0665
     60 H29         4.8287    0.5385   -0.0412 H         1 <0>         0.4447
     61 H30         2.7974    3.9682   -0.0043 H         1 <0>         0.4446
     62 H31         4.4774    3.9869   -0.0205 H         1 <0>         0.4347
     63 H32         5.6525    2.0028   -0.0419 H         1 <0>         0.4347
@<TRIPOS>BOND
     1    1    6 ar
     2    1    2 ar
     3    1   33 1
     4    2    3 ar
     5    2   34 1
     6    3    4 ar
     7    3   30 1
     8    4    5 ar
     9    4   35 1
    10    5    6 ar
    11    5   36 1
    12    6    7 1
    13    7    8 1
    14    7   37 1
    15    7   38 1
    16    8    9 am
    17    8   39 1
    18    9   10 2
    19    9   11 1
    20   11   12 1
    21   11   40 1
    22   11   41 1
    23   12   13 am
    24   12   42 1
    25   13   14 2
    26   13   15 1
    27   15   16 1
    28   15   17 1
    29   15   19 1
    30   17   18 1
    31   17   43 1
    32   17   44 1
    33   18   45 1
    34   19   20 1
    35   19   46 1
    36   20   21 2
    37   20   22 2
    38   20   23 1
    39   23   24 1
    40   23   47 1
    41   23   48 1
    42   24   29 1
    43   24   25 1
    44   24   49 1
    45   25   26 1
    46   25   50 1
    47   25   51 1
    48   26   27 1
    49   26   52 1
    50   26   53 1
    51   27   28 1
    52   27   54 1
    53   27   55 1
    54   28   29 1
    55   28   56 1
    56   28   57 1
    57   29   58 1
    58   29   59 1
    59   30   31 2
    60   30   32 1
    61   31   60 1
    62   31   63 1
    63   32   61 1
    64   32   62 1
@<TRIPOS>MOLECULE
CHEMBL393592
   65    68     0     0     0
SMALL
USER_CHARGES

@<TRIPOS>ATOM
      1 C1          1.8207    1.1953   -3.0619 C.ar      1 <0>        -0.0825
      2 C2          3.0096    1.3394   -3.7549 C.ar      1 <0>        -0.1239
      3 C3          4.1756    0.8030   -3.2491 C.ar      1 <0>        -0.0551
      4 C4          4.1542    0.1138   -2.0355 C.ar      1 <0>        -0.1485
      5 C5          2.9515   -0.0279   -1.3416 C.ar      1 <0>        -0.0852
      6 C6          1.7926    0.5132   -1.8585 C.ar      1 <0>        -0.1235
      7 C7          5.4000   -0.4640   -1.4878 C.2       1 <0>         0.5616
      8 O1          6.4459   -0.3394   -2.0946 O.2       1 <0>        -0.5235
      9 N1          5.3760   -1.1289   -0.3157 N.am      1 <0>        -0.7132
     10 C8          6.5813   -1.8082    0.1659 C.3       1 <0>        -0.4385
     11 C9          6.2183   -3.2175    0.6382 C.3       1 <0>        -0.0884
     12 C10         7.4582   -3.9162    1.1337 C.ar      1 <0>        -0.1015
     13 C11         8.2318   -4.6535    0.2561 C.ar      1 <0>        -0.0682
     14 C12         9.3688   -5.2951    0.7070 C.ar      1 <0>        -0.1110
     15 C13         9.7346   -5.1992    2.0432 C.ar      1 <0>         0.1081
     16 C14         8.9555   -4.4580    2.9219 C.ar      1 <0>        -0.1464
     17 C15         7.8229   -3.8141    2.4636 C.ar      1 <0>        -0.0729
     18 N2         10.8857   -5.8484    2.5033 N.pl3     1 <0>        -0.6317
     19 C16        10.8949   -6.4291    3.7440 C.cat     1 <0>         0.7446
     20 N3         12.0263   -6.9312    4.2359 N.pl3     1 <0>        -0.7874
     21 N4          9.7724   -6.4916    4.4584 N.pl3     1 <0>        -0.7933
     22 P1          7.2955   -0.8671    1.5543 P.3       1 <0>         2.3009
     23 O2          6.4074   -0.9765    2.7331 O.2       1 <0>        -0.9742
     24 O3          8.7458   -1.4644    1.9178 O.3       1 <0>        -0.6122
     25 C17         9.3949   -0.7820    2.8975 C.ar      1 <0>         0.0740
     26 C18        10.2022    0.2987    2.5737 C.ar      1 <0>        -0.1363
     27 C19        10.8606    0.9910    3.5715 C.ar      1 <0>        -0.0969
     28 C20        10.7158    0.6074    4.8920 C.ar      1 <0>        -0.1113
     29 C21         9.9122   -0.4697    5.2173 C.ar      1 <0>        -0.1035
     30 C22         9.2468   -1.1614    4.2237 C.ar      1 <0>        -0.1203
     31 O4          7.4422    0.6803    1.1346 O.3       1 <0>        -0.6357
     32 C23         6.4700    1.4845    1.6395 C.ar      1 <0>         0.1026
     33 C24         5.3844    1.8404    0.8525 C.ar      1 <0>        -0.1402
     34 C25         4.3972    2.6576    1.3682 C.ar      1 <0>        -0.0973
     35 C26         4.4907    3.1212    2.6675 C.ar      1 <0>        -0.1129
     36 C27         5.5718    2.7682    3.4538 C.ar      1 <0>        -0.0936
     37 C28         6.5586    1.9462    2.9447 C.ar      1 <0>        -0.1133
     38 H1          0.9114    1.6210   -3.4600 H         1 <0>         0.1335
     39 H2          3.0247    1.8726   -4.6940 H         1 <0>         0.1355
     40 H3          5.1029    0.9158   -3.7911 H         1 <0>         0.1375
     41 H4          2.9282   -0.5604   -0.4022 H         1 <0>         0.1254
     42 H5          0.8613    0.4043   -1.3225 H         1 <0>         0.1349
     43 H6          4.5607   -1.1577    0.2089 H         1 <0>         0.4143
     44 H7          7.3098   -1.8724   -0.6424 H         1 <0>         0.1302
     45 H8          5.4898   -3.1533    1.4465 H         1 <0>         0.1090
     46 H9          5.7913   -3.7802   -0.1919 H         1 <0>         0.1011
     47 H10         7.9466   -4.7280   -0.7828 H         1 <0>         0.1421
     48 H11         9.9724   -5.8711    0.0213 H         1 <0>         0.1428
     49 H12         9.2373   -4.3818    3.9618 H         1 <0>         0.1405
     50 H13         7.2192   -3.2336    3.1454 H         1 <0>         0.1574
     51 H14        11.6771   -5.8872    1.9438 H         1 <0>         0.4439
     52 H15        12.8437   -6.8856    3.7157 H         1 <0>         0.4422
     53 H16         8.9277   -6.2323    4.0582 H         1 <0>         0.4436
     54 H17         9.7997   -6.7965    5.3788 H         1 <0>         0.4408
     55 H18        10.3162    0.5984    1.5424 H         1 <0>         0.1354
     56 H19        11.4892    1.8325    3.3200 H         1 <0>         0.1378
     57 H20        11.2316    1.1497    5.6706 H         1 <0>         0.1349
     58 H21         9.8010   -0.7677    6.2494 H         1 <0>         0.1364
     59 H22         8.6156   -1.9999    4.4787 H         1 <0>         0.1351
     60 H23         5.3113    1.4792   -0.1627 H         1 <0>         0.1224
     61 H24         3.5519    2.9350    0.7559 H         1 <0>         0.1332
     62 H25         3.7180    3.7602    3.0688 H         1 <0>         0.1335
     63 H26         5.6427    3.1319    4.4683 H         1 <0>         0.1357
     64 H27         7.4006    1.6672    3.5608 H         1 <0>         0.1274
     65 H28        12.0328   -7.3424    5.1144 H         1 <0>         0.4438
@<TRIPOS>BOND
     1    1    6 ar
     2    1    2 ar
     3    1   38 1
     4    2    3 ar
     5    2   39 1
     6    3    4 ar
     7    3   40 1
     8    4    5 ar
     9    4    7 1
    10    5    6 ar
    11    5   41 1
    12    6   42 1
    13    7    8 2
    14    7    9 am
    15    9   10 1
    16    9   43 1
    17   10   11 1
    18   10   22 1
    19   10   44 1
    20   11   12 1
    21   11   45 1
    22   11   46 1
    23   12   17 ar
    24   12   13 ar
    25   13   14 ar
    26   13   47 1
    27   14   15 ar
    28   14   48 1
    29   15   16 ar
    30   15   18 1
    31   16   17 ar
    32   16   49 1
    33   17   50 1
    34   18   19 1
    35   18   51 1
    36   19   20 2
    37   19   21 1
    38   20   52 1
    39   20   65 1
    40   21   53 1
    41   21   54 1
    42   22   23 2
    43   22   24 1
    44   22   31 1
    45   24   25 1
    46   25   30 ar
    47   25   26 ar
    48   26   27 ar
    49   26   55 1
    50   27   28 ar
    51   27   56 1
    52   28   29 ar
    53   28   57 1
    54   29   30 ar
    55   29   58 1
    56   30   59 1
    57   31   32 1
    58   32   37 ar
    59   32   33 ar
    60   33   34 ar
    61   33   60 1
    62   34   35 ar
    63   34   61 1
    64   35   36 ar
    65   35   62 1
    66   36   37 ar
    67   36   63 1
    68   37   64 1
@<TRIPOS>MOLECULE
CHEMBL393592__1
   65    68     0     0     0
SMALL
USER_CHARGES

@<TRIPOS>ATOM
      1 C1         -1.5203   -4.8264    1.2388 C.ar      1 <0>        -0.0828
      2 C2         -0.7390   -5.3796    2.2378 C.ar      1 <0>        -0.1239
      3 C3          0.6366   -5.3474    2.1394 C.ar      1 <0>        -0.0568
      4 C4          1.2401   -4.7551    1.0289 C.ar      1 <0>        -0.1471
      5 C5          0.4462   -4.1988    0.0247 C.ar      1 <0>        -0.0822
      6 C6         -0.9284   -4.2377    0.1354 C.ar      1 <0>        -0.1232
      7 C7          2.7138   -4.7165    0.9171 C.2       1 <0>         0.5620
      8 O1          3.4027   -5.2014    1.7934 O.2       1 <0>        -0.5267
      9 N1          3.2934   -4.1438   -0.1565 N.am      1 <0>        -0.7118
     10 C8          4.7529   -4.0431   -0.2344 C.3       1 <0>        -0.4406
     11 C9          5.2155   -4.4184   -1.6436 C.3       1 <0>        -0.0874
     12 C10         6.7168   -4.3148   -1.7238 C.ar      1 <0>        -0.1006
     13 C11         7.3072   -3.1198   -2.0920 C.ar      1 <0>        -0.0762
     14 C12         8.6828   -3.0215   -2.1663 C.ar      1 <0>        -0.0976
     15 C13         9.4732   -4.1245   -1.8708 C.ar      1 <0>         0.1072
     16 C14         8.8772   -5.3231   -1.5014 C.ar      1 <0>        -0.1586
     17 C15         7.5012   -5.4133   -1.4234 C.ar      1 <0>        -0.0684
     18 N2         10.8672   -4.0284   -1.9457 N.pl3     1 <0>        -0.6312
     19 C16        11.6023   -5.0847   -2.4151 C.cat     1 <0>         0.7444
     20 N3         12.9327   -5.0465   -2.3610 N.pl3     1 <0>        -0.7873
     21 N4         10.9868   -6.1499   -2.9257 N.pl3     1 <0>        -0.7938
     22 P1          5.2647   -2.3336    0.1382 P.3       1 <0>         2.3007
     23 O2          4.8766   -1.4472   -0.9817 O.2       1 <0>        -0.9739
     24 O3          4.5419   -1.8393    1.4892 O.3       1 <0>        -0.6343
     25 C17         3.3876   -1.1534    1.2794 C.ar      1 <0>         0.0915
     26 C18         3.4286    0.1367    0.7708 C.ar      1 <0>        -0.1073
     27 C19         2.2538    0.8317    0.5580 C.ar      1 <0>        -0.0963
     28 C20         1.0378    0.2427    0.8518 C.ar      1 <0>        -0.1126
     29 C21         0.9943   -1.0428    1.3592 C.ar      1 <0>        -0.1000
     30 C22         2.1660   -1.7442    1.5680 C.ar      1 <0>        -0.1362
     31 O4          6.8619   -2.2823    0.3344 O.3       1 <0>        -0.6130
     32 C23         7.3467   -1.0406    0.5991 C.ar      1 <0>         0.0717
     33 C24         7.6275   -0.1678   -0.4421 C.ar      1 <0>        -0.1220
     34 C25         8.1198    1.0940   -0.1704 C.ar      1 <0>        -0.1021
     35 C26         8.3331    1.4872    1.1379 C.ar      1 <0>        -0.1104
     36 C27         8.0545    0.6191    2.1773 C.ar      1 <0>        -0.0992
     37 C28         7.5562   -0.6416    1.9112 C.ar      1 <0>        -0.1317
     38 H1         -2.5968   -4.8582    1.3185 H         1 <0>         0.1333
     39 H2         -1.2072   -5.8373    3.0967 H         1 <0>         0.1351
     40 H3          1.2453   -5.7793    2.9200 H         1 <0>         0.1370
     41 H4          0.9069   -3.7387   -0.8369 H         1 <0>         0.1249
     42 H5         -1.5439   -3.8076   -0.6409 H         1 <0>         0.1348
     43 H6          2.7442   -3.7984   -0.8776 H         1 <0>         0.4144
     44 H7          5.2031   -4.7230    0.4889 H         1 <0>         0.1295
     45 H8          4.9094   -5.4405   -1.8664 H         1 <0>         0.1003
     46 H9          4.7653   -3.7385   -2.3669 H         1 <0>         0.1099
     47 H10         6.6920   -2.2625   -2.3220 H         1 <0>         0.1594
     48 H11         9.1434   -2.0881   -2.4543 H         1 <0>         0.1454
     49 H12         9.4891   -6.1828   -1.2713 H         1 <0>         0.1382
     50 H13         7.0372   -6.3438   -1.1315 H         1 <0>         0.1414
     51 H14        11.3129   -3.2139   -1.6652 H         1 <0>         0.4446
     52 H15        13.3809   -4.2708   -1.9892 H         1 <0>         0.4425
     53 H16        10.0276   -6.1334   -3.0690 H         1 <0>         0.4433
     54 H17        11.4978   -6.9421   -3.1542 H         1 <0>         0.4403
     55 H18         4.3781    0.5975    0.5418 H         1 <0>         0.1322
     56 H19         2.2852    1.8360    0.1621 H         1 <0>         0.1358
     57 H20         0.1205    0.7877    0.6850 H         1 <0>         0.1325
     58 H21         0.0433   -1.5005    1.5882 H         1 <0>         0.1315
     59 H22         2.1313   -2.7499    1.9602 H         1 <0>         0.1255
     60 H23         7.4617   -0.4748   -1.4642 H         1 <0>         0.1389
     61 H24         8.3386    1.7738   -0.9806 H         1 <0>         0.1377
     62 H25         8.7184    2.4740    1.3482 H         1 <0>         0.1346
     63 H26         8.2223    0.9285    3.1984 H         1 <0>         0.1369
     64 H27         7.3345   -1.3177    2.7236 H         1 <0>         0.1342
     65 H28        13.4532   -5.7945   -2.6935 H         1 <0>         0.4436
@<TRIPOS>BOND
     1    1    6 ar
     2    1    2 ar
     3    1   38 1
     4    2    3 ar
     5    2   39 1
     6    3    4 ar
     7    3   40 1
     8    4    5 ar
     9    4    7 1
    10    5    6 ar
    11    5   41 1
    12    6   42 1
    13    7    8 2
    14    7    9 am
    15    9   10 1
    16    9   43 1
    17   10   11 1
    18   10   22 1
    19   10   44 1
    20   11   12 1
    21   11   45 1
    22   11   46 1
    23   12   17 ar
    24   12   13 ar
    25   13   14 ar
    26   13   47 1
    27   14   15 ar
    28   14   48 1
    29   15   16 ar
    30   15   18 1
    31   16   17 ar
    32   16   49 1
    33   17   50 1
    34   18   19 1
    35   18   51 1
    36   19   20 2
    37   19   21 1
    38   20   52 1
    39   20   65 1
    40   21   53 1
    41   21   54 1
    42   22   23 2
    43   22   24 1
    44   22   31 1
    45   24   25 1
    46   25   30 ar
    47   25   26 ar
    48   26   27 ar
    49   26   55 1
    50   27   28 ar
    51   27   56 1
    52   28   29 ar
    53   28   57 1
    54   29   30 ar
    55   29   58 1
    56   30   59 1
    57   31   32 1
    58   32   37 ar
    59   32   33 ar
    60   33   34 ar
    61   33   60 1
    62   34   35 ar
    63   34   61 1
    64   35   36 ar
    65   35   62 1
    66   36   37 ar
    67   36   63 1
    68   37   64 1
@<TRIPOS>MOLECULE
CHEMBL174193
   50    53     0     0     0
SMALL
USER_CHARGES

@<TRIPOS>ATOM
      1 C1          0.3883    1.8865   -0.9826 C.3       1 <0>        -0.2205
      2 S1          0.3504    0.1062   -0.6365 S.3       1 <0>         0.1725
      3 C2         -1.3648   -0.2576   -0.4619 C.2       1 <0>        -0.0858
      4 C3         -1.9764   -1.4786   -0.1831 C.2       1 <0>        -0.0807
      5 C4         -3.3504   -1.5155   -0.0933 C.2       1 <0>         0.0209
      6 C5         -4.0598   -0.3424   -0.2833 C.2       1 <0>        -0.3230
      7 S2         -2.7628    0.8447   -0.5892 S.3       1 <0>         0.1794
      8 C6         -5.5059   -0.1288   -0.2396 C.cat     1 <0>         0.6518
      9 N1         -6.0087    1.0939   -0.4518 N.pl3     1 <0>        -0.7727
     10 N2         -6.3271   -1.1558    0.0125 N.pl3     1 <0>        -0.7663
     11 C7         -1.1678   -2.7078    0.0117 C.2       1 <0>         0.1524
     12 C8         -1.7494   -3.9142    0.2804 C.2       1 <0>        -0.2725
     13 S3         -0.3078   -4.9601    0.4029 S.3       1 <0>         0.1586
     14 C9          0.8618   -3.7873    0.1073 C.2       1 <0>         0.3153
     15 N3          0.1572   -2.6916   -0.0720 N.2       1 <0>        -0.5739
     16 N4          2.2386   -3.9406    0.0590 N.pl3     1 <0>        -0.6126
     17 C10         2.8037   -5.2185    0.1388 C.ar      1 <0>         0.1578
     18 C11         4.0089   -5.4051    0.8035 C.ar      1 <0>        -0.1221
     19 C12         4.5655   -6.6663    0.8822 C.ar      1 <0>        -0.0756
     20 C13         3.9213   -7.7470    0.2974 C.ar      1 <0>         0.0782
     21 C14         2.7177   -7.5614   -0.3671 C.ar      1 <0>        -0.0754
     22 C15         2.1568   -6.3018   -0.4418 C.ar      1 <0>        -0.1439
     23 O1          4.4701   -8.9886    0.3753 O.3       1 <0>        -0.2365
     24 C16         4.3912   -9.6467    1.5590 C.ar      1 <0>         0.3430
     25 C17         4.9048  -10.9332    1.6667 C.ar      1 <0>        -0.1809
     26 C18         4.8179  -11.5935    2.8796 C.ar      1 <0>         0.0109
     27 C19         4.2173  -10.9404    3.9475 C.ar      1 <0>        -0.2728
     28 C20         3.7285   -9.6617    3.7688 C.ar      1 <0>         0.1983
     29 N5          3.8308   -9.0555    2.6012 N.ar      1 <0>        -0.5257
     30 C21         4.0998  -11.6203    5.2872 C.3       1 <0>         0.5199
     31 F1          5.2330  -11.3346    6.0562 F         1 <0>        -0.1727
     32 F2          2.9582  -11.1543    5.9481 F         1 <0>        -0.1744
     33 F3          3.9991  -13.0032    5.1012 F         1 <0>        -0.1735
     34 H1          1.4215    2.2103   -1.1080 H         1 <0>         0.1308
     35 H2         -0.1699    2.0910   -1.8962 H         1 <0>         0.0955
     36 H3         -0.0638    2.4279   -0.1517 H         1 <0>         0.0955
     37 H4         -3.8638   -2.4412    0.1208 H         1 <0>         0.1553
     38 H5         -5.4138    1.8379   -0.6345 H         1 <0>         0.4408
     39 H6         -5.9628   -2.0416    0.1662 H         1 <0>         0.4432
     40 H7         -7.2862   -1.0141    0.0415 H         1 <0>         0.4345
     41 H8         -2.7939   -4.1660    0.3895 H         1 <0>         0.1942
     42 H9          2.8104   -3.1621   -0.0300 H         1 <0>         0.4276
     43 H10         4.5107   -4.5639    1.2585 H         1 <0>         0.1399
     44 H11         5.5028   -6.8114    1.3987 H         1 <0>         0.1380
     45 H12         2.2170   -8.4031   -0.8224 H         1 <0>         0.1414
     46 H13         1.2175   -6.1583   -0.9550 H         1 <0>         0.1372
     47 H14         5.3653  -11.4116    0.8149 H         1 <0>         0.1596
     48 H15         5.2080  -12.5941    2.9929 H         1 <0>         0.1599
     49 H16         3.2601   -9.1495    4.5962 H         1 <0>         0.1740
     50 H17        -6.9679    1.2356   -0.4228 H         1 <0>         0.4349
@<TRIPOS>BOND
     1    1    2 1
     2    1   34 1
     3    1   35 1
     4    1   36 1
     5    2    3 1
     6    3    7 1
     7    3    4 2
     8    4    5 1
     9    4   11 1
    10    5    6 2
    11    5   37 1
    12    6    7 1
    13    6    8 1
    14    8    9 2
    15    8   10 1
    16    9   38 1
    17    9   50 1
    18   10   39 1
    19   10   40 1
    20   11   15 1
    21   11   12 2
    22   12   13 1
    23   12   41 1
    24   13   14 1
    25   14   15 2
    26   14   16 1
    27   16   17 1
    28   16   42 1
    29   17   22 ar
    30   17   18 ar
    31   18   19 ar
    32   18   43 1
    33   19   20 ar
    34   19   44 1
    35   20   21 ar
    36   20   23 1
    37   21   22 ar
    38   21   45 1
    39   22   46 1
    40   23   24 1
    41   24   29 ar
    42   24   25 ar
    43   25   26 ar
    44   25   47 1
    45   26   27 ar
    46   26   48 1
    47   27   28 ar
    48   27   30 1
    49   28   29 ar
    50   28   49 1
    51   30   31 1
    52   30   32 1
    53   30   33 1
@<TRIPOS>MOLECULE
CHEMBL367114
   40    43     0     0     0
SMALL
USER_CHARGES

@<TRIPOS>ATOM
      1 C1          0.9069    1.7175    0.5411 C.3       1 <0>        -0.2206
      2 S1          0.6437   -0.0689    0.3673 S.3       1 <0>         0.1731
      3 C2          1.4202   -0.4672   -1.1634 C.2       1 <0>        -0.0857
      4 C3          1.5195   -1.7038   -1.7985 C.2       1 <0>        -0.0808
      5 C4          2.1829   -1.7676   -3.0040 C.2       1 <0>         0.0211
      6 C5          2.7193   -0.6048   -3.5289 C.2       1 <0>        -0.3231
      7 S2          2.2737    0.6113   -2.3010 S.3       1 <0>         0.1790
      8 C6          3.4586   -0.4185   -4.7769 C.cat     1 <0>         0.6519
      9 N1          3.9025    0.7981   -5.1169 N.pl3     1 <0>        -0.7727
     10 N2          3.6917   -1.4645   -5.5795 N.pl3     1 <0>        -0.7664
     11 C7          0.9261   -2.9211   -1.1912 C.2       1 <0>         0.1526
     12 C8          1.0178   -4.1425   -1.7960 C.2       1 <0>        -0.2726
     13 S3          0.1440   -5.1635   -0.6208 S.3       1 <0>         0.1594
     14 C9         -0.2411   -3.9645    0.4949 C.2       1 <0>         0.3161
     15 N3          0.2840   -2.8790   -0.0298 N.2       1 <0>        -0.5736
     16 N4         -0.9407   -4.0913    1.6848 N.pl3     1 <0>        -0.6083
     17 C10        -1.3151   -5.3591    2.1448 C.ar      1 <0>         0.1631
     18 C11        -0.4893   -6.4523    1.9173 C.ar      1 <0>        -0.1482
     19 C12        -0.8577   -7.7044    2.3709 C.ar      1 <0>        -0.0620
     20 C13        -2.0514   -7.8732    3.0538 C.ar      1 <0>         0.0234
     21 C14        -2.8816   -6.7788    3.2840 C.ar      1 <0>         0.0702
     22 C15        -2.5093   -5.5231    2.8337 C.ar      1 <0>        -0.1228
     23 O1         -3.9838   -7.2035    3.9683 O.3       1 <0>        -0.3028
     24 C16        -4.0159   -8.6327    3.7973 C.3       1 <0>         0.2126
     25 O2         -2.6344   -8.9841    3.5946 O.3       1 <0>        -0.3027
     26 H1          1.9763    1.9275    0.5563 H         1 <0>         0.0956
     27 H2          0.4466    2.2361   -0.2999 H         1 <0>         0.0955
     28 H3          0.4557    2.0624    1.4715 H         1 <0>         0.1309
     29 H4          2.2828   -2.7062   -3.5289 H         1 <0>         0.1554
     30 H5          3.7336    1.5559   -4.5355 H         1 <0>         0.4408
     31 H6          3.3701   -2.3459   -5.3332 H         1 <0>         0.4432
     32 H7          4.1820   -1.3410   -6.4073 H         1 <0>         0.4345
     33 H8          1.4888   -4.4153   -2.7288 H         1 <0>         0.1944
     34 H9         -1.1709   -3.3014    2.1986 H         1 <0>         0.4282
     35 H10         0.4415   -6.3237    1.3849 H         1 <0>         0.1437
     36 H11        -0.2141   -8.5532    2.1926 H         1 <0>         0.1480
     37 H12        -3.1499   -4.6726    3.0144 H         1 <0>         0.1454
     38 H13        -4.4069   -9.1169    4.6921 H         1 <0>         0.1385
     39 H14        -4.6113   -8.9007    2.9244 H         1 <0>         0.0910
     40 H15         4.3928    0.9216   -5.9447 H         1 <0>         0.4348
@<TRIPOS>BOND
     1    1    2 1
     2    1   26 1
     3    1   27 1
     4    1   28 1
     5    2    3 1
     6    3    7 1
     7    3    4 2
     8    4    5 1
     9    4   11 1
    10    5    6 2
    11    5   29 1
    12    6    7 1
    13    6    8 1
    14    8    9 2
    15    8   10 1
    16    9   30 1
    17    9   40 1
    18   10   31 1
    19   10   32 1
    20   11   15 1
    21   11   12 2
    22   12   13 1
    23   12   33 1
    24   13   14 1
    25   14   15 2
    26   14   16 1
    27   16   17 1
    28   16   34 1
    29   17   22 ar
    30   17   18 ar
    31   18   19 ar
    32   18   35 1
    33   19   20 ar
    34   19   36 1
    35   20   25 1
    36   20   21 ar
    37   21   22 ar
    38   21   23 1
    39   22   37 1
    40   23   24 1
    41   24   25 1
    42   24   38 1
    43   24   39 1
@<TRIPOS>MOLECULE
CHEMBL135723
   37    38     0     0     0
SMALL
USER_CHARGES

@<TRIPOS>ATOM
      1 C1         -0.0167    1.3781    0.0096 C.ar      1 <0>        -0.0885
      2 C2          1.1709    2.0855    0.0021 C.ar      1 <0>        -0.1043
      3 C3          2.3773    1.4107   -0.0130 C.ar      1 <0>        -0.0462
      4 C4          2.3960    0.0285   -0.0201 C.ar      1 <0>        -0.0956
      5 C5          1.2085   -0.6789   -0.0117 C.ar      1 <0>        -0.0866
      6 C6          0.0021   -0.0041    0.0020 C.ar      1 <0>        -0.1331
      7 C7         -1.2926   -0.7753    0.0107 C.3       1 <0>         0.1434
      8 N1         -1.7258   -1.0177   -1.3676 N.pl3     1 <0>        -0.6907
      9 C8         -2.8837   -1.7046   -1.6098 C.cat     1 <0>         0.7404
     10 N2         -3.2775   -1.9251   -2.8630 N.pl3     1 <0>        -0.7954
     11 N3         -3.6173   -2.1530   -0.5925 N.pl3     1 <0>        -0.7938
     12 C9          3.6720    2.1819   -0.0222 C.3       1 <0>        -0.1018
     13 C10         4.4815    1.8141   -1.2721 C.3       1 <0>        -0.1124
     14 C11         5.8570    2.4879   -1.1867 C.3       1 <0>        -0.1099
     15 C12         6.4970    2.1089    0.1308 C.2       1 <0>         0.0895
     16 C13         7.7268    1.6384    0.1784 C.2       1 <0>        -0.1770
     17 I1          8.5809    1.1238    2.0209 I         1 <0>        -0.0333
     18 O1          5.7595    2.2702    1.2702 O.3       1 <0>        -0.2941
     19 C14         4.4850    1.8239    1.2021 C.2       1 <0>         0.4902
     20 O2          4.0098    1.1596    2.0925 O.2       1 <0>        -0.4180
     21 H1         -0.9591    1.9053    0.0259 H         1 <0>         0.1310
     22 H2          1.1563    3.1654    0.0076 H         1 <0>         0.1347
     23 H3          3.3385   -0.4987   -0.0326 H         1 <0>         0.1274
     24 H4          1.2231   -1.7588   -0.0179 H         1 <0>         0.1302
     25 H5         -1.1443   -1.7285    0.5180 H         1 <0>         0.1005
     26 H6         -2.0551   -0.1993    0.5352 H         1 <0>         0.1006
     27 H7         -1.1916   -0.6912   -2.1085 H         1 <0>         0.4357
     28 H8         -2.7433   -1.5985   -3.6038 H         1 <0>         0.4407
     29 H9         -3.3304   -1.9924    0.3201 H         1 <0>         0.4400
     30 H10        -4.4383   -2.6400   -0.7643 H         1 <0>         0.4407
     31 H11         3.4609    3.2513   -0.0215 H         1 <0>         0.1304
     32 H12         4.6071    0.7324   -1.3207 H         1 <0>         0.0816
     33 H13         3.9582    2.1634   -2.1621 H         1 <0>         0.0995
     34 H14         6.4839    2.1460   -2.0102 H         1 <0>         0.1097
     35 H15         5.7383    3.5702   -1.2381 H         1 <0>         0.1045
     36 H16         8.2945    1.5181   -0.7324 H         1 <0>         0.1689
     37 H17        -4.0986   -2.4121   -3.0347 H         1 <0>         0.4408
@<TRIPOS>BOND
     1    1    6 ar
     2    1    2 ar
     3    1   21 1
     4    2    3 ar
     5    2   22 1
     6    3    4 ar
     7    3   12 1
     8    4    5 ar
     9    4   23 1
    10    5    6 ar
    11    5   24 1
    12    6    7 1
    13    7    8 1
    14    7   25 1
    15    7   26 1
    16    8    9 1
    17    8   27 1
    18    9   10 2
    19    9   11 1
    20   10   28 1
    21   10   37 1
    22   11   29 1
    23   11   30 1
    24   12   19 1
    25   12   13 1
    26   12   31 1
    27   13   14 1
    28   13   32 1
    29   13   33 1
    30   14   15 1
    31   14   34 1
    32   14   35 1
    33   15   16 2
    34   15   18 1
    35   16   17 1
    36   16   36 1
    37   18   19 1
    38   19   20 2
@<TRIPOS>MOLECULE
CHEMBL135723__1
   37    38     0     0     0
SMALL
USER_CHARGES

@<TRIPOS>ATOM
      1 C1         -0.0167    1.3781    0.0096 C.ar      1 <0>        -0.0885
      2 C2          1.1709    2.0855    0.0021 C.ar      1 <0>        -0.1043
      3 C3          2.3773    1.4107   -0.0130 C.ar      1 <0>        -0.0461
      4 C4          2.3960    0.0285   -0.0201 C.ar      1 <0>        -0.0954
      5 C5          1.2085   -0.6789   -0.0117 C.ar      1 <0>        -0.0867
      6 C6          0.0021   -0.0041    0.0020 C.ar      1 <0>        -0.1334
      7 C7         -1.2926   -0.7753    0.0107 C.3       1 <0>         0.1441
      8 N1         -1.7258   -1.0177   -1.3676 N.pl3     1 <0>        -0.6910
      9 C8         -2.8837   -1.7046   -1.6098 C.cat     1 <0>         0.7407
     10 N2         -3.2775   -1.9251   -2.8630 N.pl3     1 <0>        -0.7950
     11 N3         -3.6173   -2.1530   -0.5925 N.pl3     1 <0>        -0.7944
     12 C9          3.6720    2.1819   -0.0222 C.3       1 <0>        -0.1018
     13 C10         4.5061    1.8025    1.2078 C.3       1 <0>        -0.1135
     14 C11         5.8796    2.4773    1.1015 C.3       1 <0>        -0.1100
     15 C12         6.4934    2.1106   -0.2319 C.2       1 <0>         0.0899
     16 C13         7.7216    1.6399   -0.3081 C.2       1 <0>        -0.1765
     17 I1          8.5391    1.1426   -2.1718 I         1 <0>        -0.0342
     18 O1          5.7335    2.2825   -1.3549 O.3       1 <0>        -0.2945
     19 C14         4.4606    1.8354   -1.2658 C.2       1 <0>         0.4924
     20 O2          3.9680    1.1787   -2.1524 O.2       1 <0>        -0.4221
     21 H1         -0.9591    1.9053    0.0259 H         1 <0>         0.1310
     22 H2          1.1563    3.1654    0.0076 H         1 <0>         0.1346
     23 H3          3.3385   -0.4987   -0.0326 H         1 <0>         0.1274
     24 H4          1.2231   -1.7588   -0.0179 H         1 <0>         0.1301
     25 H5         -1.1443   -1.7285    0.5180 H         1 <0>         0.1000
     26 H6         -2.0551   -0.1993    0.5352 H         1 <0>         0.1003
     27 H7         -1.1916   -0.6912   -2.1085 H         1 <0>         0.4369
     28 H8         -2.7433   -1.5985   -3.6038 H         1 <0>         0.4412
     29 H9         -3.3304   -1.9924    0.3201 H         1 <0>         0.4395
     30 H10        -4.4383   -2.6400   -0.7643 H         1 <0>         0.4405
     31 H11         3.4610    3.2512   -0.0089 H         1 <0>         0.1305
     32 H12         4.0005    2.1434    2.1113 H         1 <0>         0.1010
     33 H13         4.6325    0.7204    1.2438 H         1 <0>         0.0821
     34 H14         5.7621    3.5590    1.1654 H         1 <0>         0.1047
     35 H15         6.5228    2.1277    1.9092 H         1 <0>         0.1103
     36 H16         8.3070    1.5105    0.5902 H         1 <0>         0.1693
     37 H17        -4.0986   -2.4121   -3.0347 H         1 <0>         0.4408
@<TRIPOS>BOND
     1    1    6 ar
     2    1    2 ar
     3    1   21 1
     4    2    3 ar
     5    2   22 1
     6    3    4 ar
     7    3   12 1
     8    4    5 ar
     9    4   23 1
    10    5    6 ar
    11    5   24 1
    12    6    7 1
    13    7    8 1
    14    7   25 1
    15    7   26 1
    16    8    9 1
    17    8   27 1
    18    9   10 2
    19    9   11 1
    20   10   28 1
    21   10   37 1
    22   11   29 1
    23   11   30 1
    24   12   19 1
    25   12   13 1
    26   12   31 1
    27   13   14 1
    28   13   32 1
    29   13   33 1
    30   14   15 1
    31   14   34 1
    32   14   35 1
    33   15   16 2
    34   15   18 1
    35   16   17 1
    36   16   36 1
    37   18   19 1
    38   19   20 2
@<TRIPOS>MOLECULE
CHEMBL55155
   34    35     0     0     0
SMALL
USER_CHARGES

@<TRIPOS>ATOM
      1 C1          0.0220    1.3532    0.0712 C.ar      1 <0>        -0.1421
      2 C2          1.1988    2.0752    0.0520 C.ar      1 <0>        -0.1123
      3 C3          2.4299    1.4118    0.0370 C.ar      1 <0>        -0.0921
      4 C4          2.4666    0.0171    0.0415 C.ar      1 <0>        -0.0632
      5 C5          1.2740   -0.7045    0.0610 C.ar      1 <0>        -0.1369
      6 C6          0.0507   -0.0269    0.0758 C.ar      1 <0>        -0.0758
      7 C7          1.3022   -2.1799    0.0654 C.2       1 <0>         0.5197
      8 O1          2.3727   -2.7710    0.0520 O.co2     1 <0>        -0.6863
      9 O2          0.2552   -2.8115    0.0825 O.co2     1 <0>        -0.6866
     10 C8          3.6848    2.1837    0.0159 C.2       1 <0>        -0.0708
     11 C9          3.6474    3.5275    0.0112 C.2       1 <0>        -0.1264
     12 C10         4.8999    4.2980   -0.0098 C.ar      1 <0>        -0.1009
     13 C11         6.1373    3.6463   -0.0308 C.ar      1 <0>        -0.0584
     14 C12         7.2884    4.4177   -0.0500 C.ar      1 <0>        -0.1107
     15 C13         7.1867    5.7984   -0.0480 C.ar      1 <0>         0.1233
     16 N1          6.0128    6.3985   -0.0277 N.ar      1 <0>        -0.4958
     17 C14         4.8762    5.7102   -0.0151 C.ar      1 <0>         0.3614
     18 N2          3.6846    6.3686   -0.0007 N.2       1 <0>        -0.6264
     19 C15         3.1464    6.7800   -1.1291 C.2       1 <0>         0.6785
     20 N3          3.7287    6.4525   -2.3253 N.pl3     1 <0>        -0.8762
     21 N4          2.0037    7.5357   -1.1076 N.pl3     1 <0>        -0.8364
     22 Cl1         8.8488    3.6573   -0.0758 Cl        1 <0>        -0.0642
     23 H1         -0.9257    1.8709    0.0872 H         1 <0>         0.1156
     24 H2          1.1685    3.1548    0.0481 H         1 <0>         0.1149
     25 H3          3.4142   -0.5009    0.0296 H         1 <0>         0.1286
     26 H4         -0.8739   -0.5848    0.0909 H         1 <0>         0.1269
     27 H5          4.6347    1.6699    0.0044 H         1 <0>         0.1181
     28 H6          2.6975    4.0413    0.0227 H         1 <0>         0.1279
     29 H7          6.1943    2.5678   -0.0316 H         1 <0>         0.1457
     30 H8          8.0864    6.3956   -0.0630 H         1 <0>         0.1590
     31 H9          4.4932    5.8558   -2.3452 H         1 <0>         0.4129
     32 H10         1.5914    7.7676   -0.2607 H         1 <0>         0.4228
     33 H11         1.6071    7.8389   -1.9392 H         1 <0>         0.4082
     34 H12         3.3766    6.8174   -3.1521 H         1 <0>         0.3978
@<TRIPOS>BOND
     1    1    6 ar
     2    1    2 ar
     3    1   23 1
     4    2    3 ar
     5    2   24 1
     6    3    4 ar
     7    3   10 1
     8    4    5 ar
     9    4   25 1
    10    5    6 ar
    11    5    7 1
    12    6   26 1
    13    7    8 2
    14    7    9 1
    15   10   11 2
    16   10   27 1
    17   11   12 1
    18   11   28 1
    19   12   17 ar
    20   12   13 ar
    21   13   14 ar
    22   13   29 1
    23   14   15 ar
    24   14   22 1
    25   15   16 ar
    26   15   30 1
    27   16   17 ar
    28   17   18 1
    29   18   19 2
    30   19   20 1
    31   19   21 1
    32   20   31 1
    33   20   34 1
    34   21   32 1
    35   21   33 1
@<TRIPOS>MOLECULE
CHEMBL55155__1
   34    35     0     0     0
SMALL
USER_CHARGES

@<TRIPOS>ATOM
      1 C1         -0.0179    1.3772    0.0224 C.ar      1 <0>        -0.1419
      2 C2          1.1644    2.0904    0.0140 C.ar      1 <0>        -0.1137
      3 C3          2.3904    1.4179    0.0028 C.ar      1 <0>        -0.0966
      4 C4          2.4167    0.0232    0.0002 C.ar      1 <0>        -0.0605
      5 C5          1.2187   -0.6897    0.0088 C.ar      1 <0>        -0.1356
      6 C6          0.0005   -0.0031    0.0198 C.ar      1 <0>        -0.0737
      7 C7          1.2360   -2.1653    0.0056 C.2       1 <0>         0.5190
      8 O1          2.3021   -2.7642   -0.0046 O.co2     1 <0>        -0.6851
      9 O2          0.1843   -2.7891    0.0131 O.co2     1 <0>        -0.6857
     10 C8          3.6515    2.1808   -0.0066 C.2       1 <0>        -0.0545
     11 C9          3.6241    3.5236   -0.0045 C.2       1 <0>        -0.1465
     12 C10         4.8839    4.2858   -0.0140 C.ar      1 <0>        -0.1147
     13 C11         6.1170    3.6238   -0.0311 C.ar      1 <0>        -0.0446
     14 C12         7.2731    4.3871   -0.0399 C.ar      1 <0>        -0.1202
     15 C13         7.1773    5.7676   -0.0316 C.ar      1 <0>         0.1386
     16 N1          6.0039    6.3712   -0.0150 N.ar      1 <0>        -0.4353
     17 C14         4.8700    5.6908   -0.0119 C.ar      1 <0>         0.3919
     18 N2          3.6567    6.3698   -0.0008 N.pl3     1 <0>        -0.6374
     19 C15         3.6367    7.7426    0.1104 C.2       1 <0>         0.6087
     20 N3          4.7540    8.4132    0.1033 N.2       1 <0>        -0.7433
     21 N4          2.4379    8.4054    0.2290 N.pl3     1 <0>        -0.8992
     22 Cl1         8.8293    3.6180   -0.0605 Cl        1 <0>        -0.0635
     23 H1         -0.9618    1.9019    0.0356 H         1 <0>         0.1165
     24 H2          1.1422    3.1701    0.0157 H         1 <0>         0.1133
     25 H3          3.3606   -0.5017   -0.0087 H         1 <0>         0.1302
     26 H4         -0.9284   -0.5541    0.0264 H         1 <0>         0.1277
     27 H5          4.5976    1.6600   -0.0152 H         1 <0>         0.1228
     28 H6          2.6780    4.0444    0.0041 H         1 <0>         0.1189
     29 H7          6.1659    2.5449   -0.0369 H         1 <0>         0.1493
     30 H8          8.0791    6.3617   -0.0385 H         1 <0>         0.1636
     31 H9          2.8243    5.8768   -0.0714 H         1 <0>         0.4218
     32 H10         4.7399    9.3799    0.1816 H         1 <0>         0.3314
     33 H11         1.6117    7.9032    0.3075 H         1 <0>         0.3893
     34 H12         2.4183    9.3752    0.2342 H         1 <0>         0.4091
@<TRIPOS>BOND
     1    1    6 ar
     2    1    2 ar
     3    1   23 1
     4    2    3 ar
     5    2   24 1
     6    3    4 ar
     7    3   10 1
     8    4    5 ar
     9    4   25 1
    10    5    6 ar
    11    5    7 1
    12    6   26 1
    13    7    8 2
    14    7    9 1
    15   10   11 2
    16   10   27 1
    17   11   12 1
    18   11   28 1
    19   12   17 ar
    20   12   13 ar
    21   13   14 ar
    22   13   29 1
    23   14   15 ar
    24   14   22 1
    25   15   16 ar
    26   15   30 1
    27   16   17 ar
    28   17   18 1
    29   18   19 1
    30   18   31 1
    31   19   20 2
    32   19   21 1
    33   20   32 1
    34   21   33 1
    35   21   34 1
@<TRIPOS>MOLECULE
CHEMBL55155__2
   34    35     0     0     0
SMALL
USER_CHARGES

@<TRIPOS>ATOM
      1 C1         -0.0183    1.3786    0.0372 C.ar      1 <0>        -0.1416
      2 C2          1.1639    2.0918    0.0202 C.ar      1 <0>        -0.1109
      3 C3          2.3898    1.4192    0.0013 C.ar      1 <0>        -0.1019
      4 C4          2.4161    0.0245   -0.0003 C.ar      1 <0>        -0.0583
      5 C5          1.2180   -0.6883    0.0169 C.ar      1 <0>        -0.1363
      6 C6         -0.0000   -0.0016    0.0356 C.ar      1 <0>        -0.0705
      7 C7          1.2353   -2.1639    0.0148 C.2       1 <0>         0.5191
      8 O1          2.3012   -2.7629   -0.0021 O.co2     1 <0>        -0.6851
      9 O2          0.1835   -2.7877    0.0299 O.co2     1 <0>        -0.6848
     10 C8          3.6508    2.1820   -0.0172 C.2       1 <0>        -0.0428
     11 C9          3.6235    3.5249   -0.0160 C.2       1 <0>        -0.1559
     12 C10         4.8833    4.2869   -0.0346 C.ar      1 <0>        -0.1059
     13 C11         6.1162    3.6248   -0.0595 C.ar      1 <0>        -0.0320
     14 C12         7.2723    4.3880   -0.0767 C.ar      1 <0>        -0.1188
     15 C13         7.1766    5.7685   -0.0689 C.ar      1 <0>         0.1480
     16 N1          6.0034    6.3722   -0.0449 N.ar      1 <0>        -0.5159
     17 C14         4.8695    5.6919   -0.0336 C.ar      1 <0>         0.3895
     18 N2          3.6564    6.3710   -0.0149 N.pl3     1 <0>        -0.6748
     19 C15         3.6367    7.7426    0.1104 C.2       1 <0>         0.6381
     20 N3          2.5011    8.3692    0.2362 N.2       1 <0>        -0.8185
     21 N4          4.8154    8.4506    0.1028 N.pl3     1 <0>        -0.8400
     22 Cl1         8.8283    3.6188   -0.1072 Cl        1 <0>        -0.0515
     23 H1         -0.9621    1.9034    0.0563 H         1 <0>         0.1180
     24 H2          1.1418    3.1715    0.0212 H         1 <0>         0.1139
     25 H3          3.3597   -0.5005   -0.0152 H         1 <0>         0.1305
     26 H4         -0.9288   -0.5526    0.0489 H         1 <0>         0.1287
     27 H5          4.5968    1.6611   -0.0318 H         1 <0>         0.1234
     28 H6          2.6775    4.0457   -0.0015 H         1 <0>         0.1219
     29 H7          6.1651    2.5459   -0.0648 H         1 <0>         0.1542
     30 H8          8.0784    6.3626   -0.0823 H         1 <0>         0.1723
     31 H9          2.8238    5.8789   -0.0900 H         1 <0>         0.4262
     32 H10         5.6636    7.9802    0.0923 H         1 <0>         0.4199
     33 H11         4.7986    9.4205    0.1079 H         1 <0>         0.4020
     34 H12         1.6756    7.8660    0.3146 H         1 <0>         0.3397
@<TRIPOS>BOND
     1    1    6 ar
     2    1    2 ar
     3    1   23 1
     4    2    3 ar
     5    2   24 1
     6    3    4 ar
     7    3   10 1
     8    4    5 ar
     9    4   25 1
    10    5    6 ar
    11    5    7 1
    12    6   26 1
    13    7    8 2
    14    7    9 1
    15   10   11 2
    16   10   27 1
    17   11   12 1
    18   11   28 1
    19   12   17 ar
    20   12   13 ar
    21   13   14 ar
    22   13   29 1
    23   14   15 ar
    24   14   22 1
    25   15   16 ar
    26   15   30 1
    27   16   17 ar
    28   17   18 1
    29   18   19 1
    30   18   31 1
    31   19   20 2
    32   19   21 1
    33   20   34 1
    34   21   32 1
    35   21   33 1
@<TRIPOS>MOLECULE
CHEMBL55155__3
   35    36     0     0     0
SMALL
USER_CHARGES

@<TRIPOS>ATOM
      1 C1          0.2262    1.2495    0.3550 C.ar      1 <0>        -0.1432
      2 C2          1.3395    2.0185    0.0795 C.ar      1 <0>        -0.1051
      3 C3          2.5175    1.4135   -0.3697 C.ar      1 <0>        -0.1227
      4 C4          2.5659    0.0298   -0.5391 C.ar      1 <0>        -0.0478
      5 C5          1.4376   -0.7397   -0.2589 C.ar      1 <0>        -0.1331
      6 C6          0.2668   -0.1203    0.1896 C.ar      1 <0>        -0.0574
      7 C7          1.4786   -2.2042   -0.4354 C.2       1 <0>         0.5160
      8 O1          2.5031   -2.7443   -0.8281 O.co2     1 <0>        -0.6811
      9 O2          0.4881   -2.8778   -0.1892 O.co2     1 <0>        -0.6781
     10 C8          3.7048    2.2359   -0.6637 C.2       1 <0>         0.0088
     11 C9          3.6562    3.5681   -0.5003 C.2       1 <0>        -0.2049
     12 C10         4.8424    4.3897   -0.7941 C.ar      1 <0>        -0.0430
     13 C11         6.0252    3.7961   -1.2498 C.ar      1 <0>        -0.0413
     14 C12         7.1124    4.6135   -1.5122 C.ar      1 <0>        -0.0776
     15 C13         6.9996    5.9791   -1.3184 C.ar      1 <0>         0.1385
     16 N1          5.8744    6.5176   -0.8880 N.ar      1 <0>        -0.5135
     17 C14         4.8055    5.7842   -0.6277 C.ar      1 <0>         0.3253
     18 N2          3.6388    6.3966   -0.1813 N.pl3     1 <0>        -0.6192
     19 C15         3.6361    7.7362    0.1101 C.cat     1 <0>         0.7441
     20 N3          2.4916    8.3521    0.4007 N.pl3     1 <0>        -0.7940
     21 N4          4.7779    8.4216    0.1026 N.pl3     1 <0>        -0.7678
     22 Cl1         8.6044    3.9304   -2.0788 Cl        1 <0>        -0.0184
     23 H1         -0.6795    1.7217    0.7058 H         1 <0>         0.1210
     24 H2          1.3003    3.0897    0.2109 H         1 <0>         0.1113
     25 H3          3.4728   -0.4431   -0.8861 H         1 <0>         0.1343
     26 H4         -0.6080   -0.7152    0.4071 H         1 <0>         0.1337
     27 H5          4.6139    1.7672   -1.0105 H         1 <0>         0.1284
     28 H6          2.7471    4.0368   -0.1535 H         1 <0>         0.1249
     29 H7          6.0887    2.7275   -1.3929 H         1 <0>         0.1678
     30 H8          7.8478    6.6156   -1.5229 H         1 <0>         0.1860
     31 H9          2.8273    5.8758   -0.0763 H         1 <0>         0.4511
     32 H10         2.4897    9.2999    0.6069 H         1 <0>         0.4422
     33 H11         5.6180    7.9627   -0.0536 H         1 <0>         0.4468
     34 H12         4.7693    9.3798    0.2534 H         1 <0>         0.4279
     35 H13         1.6600    7.8529    0.4062 H         1 <0>         0.4400
@<TRIPOS>BOND
     1    1    6 ar
     2    1    2 ar
     3    1   23 1
     4    2    3 ar
     5    2   24 1
     6    3    4 ar
     7    3   10 1
     8    4    5 ar
     9    4   25 1
    10    5    6 ar
    11    5    7 1
    12    6   26 1
    13    7    8 2
    14    7    9 1
    15   10   11 2
    16   10   27 1
    17   11   12 1
    18   11   28 1
    19   12   17 ar
    20   12   13 ar
    21   13   14 ar
    22   13   29 1
    23   14   15 ar
    24   14   22 1
    25   15   16 ar
    26   15   30 1
    27   16   17 ar
    28   17   18 1
    29   18   19 1
    30   18   31 1
    31   19   20 2
    32   19   21 1
    33   20   32 1
    34   20   35 1
    35   21   33 1
    36   21   34 1
@<TRIPOS>MOLECULE
CHEMBL561413
   45    48     0     0     0
SMALL
USER_CHARGES

@<TRIPOS>ATOM
      1 C1         -0.0170    1.4035    0.0098 C.ar      1 <0>        -0.0876
      2 C2          1.1390    2.1139    0.0025 C.ar      1 <0>        -0.0864
      3 C3          2.3779    1.4448   -0.0129 C.ar      1 <0>        -0.0672
      4 C4          3.5827    2.1620   -0.0200 C.ar      1 <0>        -0.0089
      5 C5          4.7856    1.4755   -0.0348 C.ar      1 <0>        -0.1560
      6 C6          4.8059    0.0695   -0.0427 C.ar      1 <0>        -0.0933
      7 C7          3.6507   -0.6426   -0.0365 C.ar      1 <0>        -0.0774
      8 C8          2.4110    0.0258   -0.0209 C.ar      1 <0>        -0.0071
      9 C9          1.2073   -0.6917   -0.0137 C.ar      1 <0>        -0.0987
     10 C10         0.0021   -0.0041    0.0020 C.ar      1 <0>         0.0780
     11 C11        -1.2313   -0.7317    0.0104 C.1       1 <0>        -0.1622
     12 C12        -2.2424   -1.3282    0.0173 C.1       1 <0>        -0.0551
     13 C13        -3.4758   -2.0558    0.0257 C.ar      1 <0>        -0.0091
     14 C14        -4.6959   -1.3738    0.0358 C.ar      1 <0>        -0.0871
     15 C15        -5.8745   -2.0850    0.0459 C.ar      1 <0>        -0.1118
     16 C16        -5.8626   -3.4742    0.0454 C.ar      1 <0>        -0.0955
     17 C17        -4.6612   -4.1537    0.0320 C.ar      1 <0>        -0.0797
     18 C18        -3.4691   -3.4512    0.0182 C.ar      1 <0>        -0.0833
     19 C19        -4.6046   -5.6600    0.0192 C.3       1 <0>        -0.1215
     20 C20        -5.9552   -6.2371    0.4436 C.3       1 <0>         0.0526
     21 N1         -7.0099   -5.5933   -0.3555 N.3       1 <0>        -0.6780
     22 C21        -7.1836   -4.1989    0.0628 C.3       1 <0>         0.0890
     23 C22         6.0587    2.2272   -0.0428 C.cat     1 <0>         0.6002
     24 N2          7.2187    1.5725   -0.0571 N.pl3     1 <0>        -0.7614
     25 N3          6.0457    3.5592   -0.0358 N.pl3     1 <0>        -0.7652
     26 H1         -0.9631    1.9241    0.0261 H         1 <0>         0.1423
     27 H2          1.1088    3.1935    0.0083 H         1 <0>         0.1453
     28 H3          3.5728    3.2419   -0.0143 H         1 <0>         0.1428
     29 H4          5.7527   -0.4501   -0.0543 H         1 <0>         0.1359
     30 H5          3.6819   -1.7221   -0.0434 H         1 <0>         0.1504
     31 H6          1.2175   -1.7716   -0.0196 H         1 <0>         0.1458
     32 H7         -4.7138   -0.2940    0.0360 H         1 <0>         0.1300
     33 H8         -6.8172   -1.5581    0.0547 H         1 <0>         0.1341
     34 H9         -2.5301   -3.9848    0.0065 H         1 <0>         0.1275
     35 H10        -4.3638   -6.0045   -0.9865 H         1 <0>         0.0816
     36 H11        -3.8330   -5.9990    0.7105 H         1 <0>         0.0841
     37 H12        -5.9660   -7.3125    0.2659 H         1 <0>         0.0876
     38 H13        -6.1231   -6.0361    1.5016 H         1 <0>         0.0787
     39 H14        -6.8034   -5.6521   -1.3414 H         1 <0>         0.3459
     40 H15        -7.5940   -4.1745    1.0724 H         1 <0>         0.0935
     41 H16        -7.8752   -3.7026   -0.6180 H         1 <0>         0.0927
     42 H17         8.0539    2.0657   -0.0624 H         1 <0>         0.4330
     43 H18         5.2010    4.0360   -0.0255 H         1 <0>         0.4431
     44 H19         6.8809    4.0524   -0.0411 H         1 <0>         0.4336
     45 H20         7.2281    0.6026   -0.0622 H         1 <0>         0.4447
@<TRIPOS>BOND
     1    1   10 ar
     2    1    2 ar
     3    1   26 1
     4    2    3 ar
     5    2   27 1
     6    3    8 ar
     7    3    4 ar
     8    4    5 ar
     9    4   28 1
    10    5    6 ar
    11    5   23 1
    12    6    7 ar
    13    6   29 1
    14    7    8 ar
    15    7   30 1
    16    8    9 ar
    17    9   10 ar
    18    9   31 1
    19   10   11 1
    20   11   12 3
    21   12   13 1
    22   13   18 ar
    23   13   14 ar
    24   14   15 ar
    25   14   32 1
    26   15   16 ar
    27   15   33 1
    28   16   22 1
    29   16   17 ar
    30   17   18 ar
    31   17   19 1
    32   18   34 1
    33   19   20 1
    34   19   35 1
    35   19   36 1
    36   20   21 1
    37   20   37 1
    38   20   38 1
    39   21   22 1
    40   21   39 1
    41   22   40 1
    42   22   41 1
    43   23   24 2
    44   23   25 1
    45   24   42 1
    46   24   45 1
    47   25   43 1
    48   25   44 1
@<TRIPOS>MOLECULE
CHEMBL561413__1
   46    49     0     0     0
SMALL
USER_CHARGES

@<TRIPOS>ATOM
      1 C1         -0.0170    1.4035    0.0098 C.ar      1 <0>        -0.0862
      2 C2          1.1390    2.1139    0.0025 C.ar      1 <0>        -0.0841
      3 C3          2.3779    1.4448   -0.0129 C.ar      1 <0>        -0.0600
      4 C4          3.5827    2.1620   -0.0200 C.ar      1 <0>        -0.0127
      5 C5          4.7856    1.4755   -0.0348 C.ar      1 <0>        -0.1469
      6 C6          4.8059    0.0695   -0.0427 C.ar      1 <0>        -0.0906
      7 C7          3.6507   -0.6426   -0.0365 C.ar      1 <0>        -0.0768
      8 C8          2.4110    0.0258   -0.0209 C.ar      1 <0>        -0.0126
      9 C9          1.2073   -0.6917   -0.0137 C.ar      1 <0>        -0.0855
     10 C10         0.0021   -0.0041    0.0020 C.ar      1 <0>         0.0520
     11 C11        -1.2313   -0.7317    0.0104 C.1       1 <0>        -0.1033
     12 C12        -2.2424   -1.3282    0.0173 C.1       1 <0>        -0.1065
     13 C13        -3.4758   -2.0558    0.0257 C.ar      1 <0>         0.0408
     14 C14        -4.6958   -1.3738    0.0358 C.ar      1 <0>        -0.0810
     15 C15        -5.8750   -2.0844    0.0454 C.ar      1 <0>        -0.0872
     16 C16        -5.8631   -3.4734    0.0447 C.ar      1 <0>        -0.1245
     17 C17        -4.6612   -4.1526    0.0322 C.ar      1 <0>        -0.0866
     18 C18        -3.4690   -3.4514    0.0182 C.ar      1 <0>        -0.0811
     19 C19        -4.6103   -5.6595    0.0227 C.3       1 <0>        -0.1083
     20 C20        -5.9691   -6.2261    0.4361 C.3       1 <0>        -0.0042
     21 N1         -7.0117   -5.5878   -0.3819 N.4       1 <0>        -0.5052
     22 C21        -7.1822   -4.2010    0.0602 C.3       1 <0>         0.0442
     23 C22         6.0587    2.2272   -0.0428 C.cat     1 <0>         0.5985
     24 N2          7.2187    1.5725   -0.0571 N.pl3     1 <0>        -0.7587
     25 N3          6.0457    3.5592   -0.0358 N.pl3     1 <0>        -0.7625
     26 H1         -0.9631    1.9241    0.0261 H         1 <0>         0.1426
     27 H2          1.1088    3.1935    0.0083 H         1 <0>         0.1478
     28 H3          3.5728    3.2419   -0.0143 H         1 <0>         0.1453
     29 H4          5.7527   -0.4501   -0.0543 H         1 <0>         0.1385
     30 H5          3.6819   -1.7221   -0.0434 H         1 <0>         0.1514
     31 H6          1.2175   -1.7716   -0.0196 H         1 <0>         0.1460
     32 H7         -4.7135   -0.2939    0.0364 H         1 <0>         0.1429
     33 H8         -6.8176   -1.5572    0.0539 H         1 <0>         0.1443
     34 H9         -2.5303   -3.9854    0.0059 H         1 <0>         0.1398
     35 H10        -4.3626   -6.0074   -0.9802 H         1 <0>         0.1073
     36 H11        -3.8474   -6.0008    0.7223 H         1 <0>         0.1251
     37 H12        -5.9822   -7.3033    0.2704 H         1 <0>         0.1430
     38 H13        -6.1492   -6.0130    1.4898 H         1 <0>         0.1358
     39 H14        -6.7350   -5.6013   -1.3522 H         1 <0>         0.4325
     40 H15        -7.5848   -4.1936    1.0732 H         1 <0>         0.1438
     41 H16        -7.8799   -3.6944   -0.6067 H         1 <0>         0.1451
     42 H17         7.2281    0.6026   -0.0622 H         1 <0>         0.4449
     43 H18         5.2010    4.0360   -0.0255 H         1 <0>         0.4433
     44 H19         6.8809    4.0524   -0.0411 H         1 <0>         0.4355
     45 H20         8.0539    2.0657   -0.0624 H         1 <0>         0.4350
     46 H21        -7.8813   -6.0871   -0.2704 H         1 <0>         0.4390
@<TRIPOS>BOND
     1    1   10 ar
     2    1    2 ar
     3    1   26 1
     4    2    3 ar
     5    2   27 1
     6    3    8 ar
     7    3    4 ar
     8    4    5 ar
     9    4   28 1
    10    5    6 ar
    11    5   23 1
    12    6    7 ar
    13    6   29 1
    14    7    8 ar
    15    7   30 1
    16    8    9 ar
    17    9   10 ar
    18    9   31 1
    19   10   11 1
    20   11   12 3
    21   12   13 1
    22   13   18 ar
    23   13   14 ar
    24   14   15 ar
    25   14   32 1
    26   15   16 ar
    27   15   33 1
    28   16   22 1
    29   16   17 ar
    30   17   18 ar
    31   17   19 1
    32   18   34 1
    33   19   20 1
    34   19   35 1
    35   19   36 1
    36   20   21 1
    37   20   37 1
    38   20   38 1
    39   21   22 1
    40   21   39 1
    41   21   46 1
    42   22   40 1
    43   22   41 1
    44   23   24 2
    45   23   25 1
    46   24   42 1
    47   24   45 1
    48   25   43 1
    49   25   44 1
@<TRIPOS>MOLECULE
CHEMBL59704
   44    47     0     0     0
SMALL
USER_CHARGES

@<TRIPOS>ATOM
      1 C1         -0.0119    1.3848    0.0704 C.ar      1 <0>        -0.1142
      2 C2          0.4451    0.7286    1.1985 C.ar      1 <0>        -0.1023
      3 C3          1.6492    0.0526    1.1656 C.ar      1 <0>        -0.1395
      4 C4          2.4005    0.0323   -0.0010 C.ar      1 <0>         0.0735
      5 C5          1.9396    0.6917   -1.1316 C.ar      1 <0>        -0.1180
      6 C6          0.7348    1.3663   -1.0932 C.ar      1 <0>        -0.1009
      7 O1          3.5855   -0.6316   -0.0359 O.3       1 <0>        -0.2442
      8 C7          3.5606   -1.9876    0.0618 C.ar      1 <0>         0.1059
      9 C8          2.3483   -2.6607    0.0625 C.ar      1 <0>        -0.1647
     10 C9          2.3162   -4.0404    0.1611 C.ar      1 <0>        -0.0818
     11 C10         3.4899   -4.7588    0.2596 C.ar      1 <0>        -0.1053
     12 C11         4.7173   -4.0940    0.2601 C.ar      1 <0>        -0.0460
     13 C12         4.7505   -2.6997    0.1552 C.ar      1 <0>         0.0946
     14 O2          5.9409   -2.0436    0.1496 O.3       1 <0>        -0.4859
     15 C13         5.9768   -4.8607    0.3661 C.2       1 <0>         0.1482
     16 C14         6.1698   -5.9409    1.1629 C.2       1 <0>        -0.1675
     17 C15         7.5491   -6.3811    0.9544 C.ar      1 <0>        -0.1169
     18 C16         8.3204   -7.4179    1.4790 C.ar      1 <0>         0.0160
     19 C17         9.6380   -7.5678    1.0603 C.ar      1 <0>        -0.1893
     20 C18        10.1811   -6.6819    0.1199 C.ar      1 <0>        -0.0579
     21 C19         9.4300   -5.6666   -0.3948 C.ar      1 <0>        -0.1100
     22 C20         8.1074   -5.4972    0.0087 C.ar      1 <0>         0.1541
     23 N1          7.1308   -4.5911   -0.3330 N.pl3     1 <0>        -0.5613
     24 H1          7.2401   -3.8681   -0.9703 H         1 <0>         0.4326
     25 C21        10.4667   -8.6622    1.6081 C.cat     1 <0>         0.6050
     26 N2         11.7291   -8.8064    1.2075 N.pl3     1 <0>        -0.7671
     27 N3          9.9513   -9.5044    2.5024 N.pl3     1 <0>        -0.7691
     28 H2         -0.9557    1.9091    0.0970 H         1 <0>         0.1325
     29 H3         -0.1398    0.7450    2.1062 H         1 <0>         0.1332
     30 H4          2.0058   -0.4595    2.0470 H         1 <0>         0.1292
     31 H5          2.5225    0.6778   -2.0407 H         1 <0>         0.1335
     32 H6          0.3755    1.8794   -1.9730 H         1 <0>         0.1354
     33 H7          1.4250   -2.1056   -0.0139 H         1 <0>         0.1413
     34 H8          1.3680   -4.5574    0.1613 H         1 <0>         0.1411
     35 H9          3.4591   -5.8356    0.3367 H         1 <0>         0.1396
     36 H10         6.2543   -1.7901    1.0286 H         1 <0>         0.3927
     37 H11         5.4443   -6.3899    1.8250 H         1 <0>         0.1639
     38 H12         7.8983   -8.0980    2.2040 H         1 <0>         0.1387
     39 H13        11.2052   -6.8043   -0.2002 H         1 <0>         0.1376
     40 H14         9.8622   -4.9912   -1.1183 H         1 <0>         0.1442
     41 H15        12.1043   -8.1932    0.5563 H         1 <0>         0.4432
     42 H16         9.0322   -9.3994    2.7941 H         1 <0>         0.4426
     43 H17        10.4952  -10.2227    2.8619 H         1 <0>         0.4316
     44 H18        12.2729   -9.5247    1.5670 H         1 <0>         0.4313
@<TRIPOS>BOND
     1    1    6 ar
     2    1    2 ar
     3    1   28 1
     4    2    3 ar
     5    2   29 1
     6    3    4 ar
     7    3   30 1
     8    4    5 ar
     9    4    7 1
    10    5    6 ar
    11    5   31 1
    12    6   32 1
    13    7    8 1
    14    8   13 ar
    15    8    9 ar
    16    9   10 ar
    17    9   33 1
    18   10   11 ar
    19   10   34 1
    20   11   12 ar
    21   11   35 1
    22   12   13 ar
    23   12   15 1
    24   13   14 1
    25   14   36 1
    26   15   23 1
    27   15   16 2
    28   16   17 1
    29   16   37 1
    30   17   22 ar
    31   17   18 ar
    32   18   19 ar
    33   18   38 1
    34   19   20 ar
    35   19   25 1
    36   20   21 ar
    37   20   39 1
    38   21   22 ar
    39   21   40 1
    40   22   23 1
    41   23   24 1
    42   25   26 2
    43   25   27 1
    44   26   41 1
    45   26   44 1
    46   27   42 1
    47   27   43 1
@<TRIPOS>MOLECULE
CHEMBL597991
   50    54     0     0     0
SMALL
USER_CHARGES

@<TRIPOS>ATOM
      1 C1          0.2957    1.8593   -0.8458 C.ar      1 <0>        -0.0852
      2 C2          1.5144    2.4750   -0.6249 C.ar      1 <0>        -0.1224
      3 C3          2.6573    1.7155   -0.4767 C.ar      1 <0>        -0.0745
      4 C4          2.5818    0.3262   -0.5499 C.ar      1 <0>        -0.0506
      5 C5          1.3516   -0.2888   -0.7726 C.ar      1 <0>        -0.0637
      6 C6          0.2150    0.4804   -0.9194 C.ar      1 <0>        -0.1240
      7 C7          3.8076   -0.4957   -0.3918 C.2       1 <0>         0.3075
      8 N1          3.8644   -1.8383   -0.4475 N.2       1 <0>        -0.5112
      9 C8          5.0905   -2.2406   -0.2698 C.2       1 <0>         0.2937
     10 O1          5.8687   -1.1651   -0.0928 O.3       1 <0>        -0.0873
     11 N2          5.0153   -0.0339   -0.1804 N.2       1 <0>        -0.3228
     12 C9          5.5548   -3.6742   -0.2636 C.3       1 <0>         0.2271
     13 H1          4.7777   -4.3097   -0.6883 H         1 <0>         0.1376
     14 C10         5.8372   -4.1047    1.1527 C.ar      1 <0>        -0.1501
     15 C11         7.0268   -3.7474    1.7595 C.ar      1 <0>        -0.0814
     16 C12         7.2859   -4.1422    3.0587 C.ar      1 <0>        -0.1187
     17 C13         6.3552   -4.8939    3.7512 C.ar      1 <0>        -0.0925
     18 C14         5.1653   -5.2505    3.1448 C.ar      1 <0>        -0.1154
     19 C15         4.9043   -4.8520    1.8471 C.ar      1 <0>        -0.0895
     20 O2          6.7461   -3.7925   -1.0439 O.3       1 <0>        -0.2923
     21 C16         7.0189   -5.0137   -1.5713 C.ar      1 <0>         0.2152
     22 C17         6.2249   -6.0880   -1.2493 C.ar      1 <0>        -0.2178
     23 C18         6.4721   -7.3513   -1.7682 C.ar      1 <0>         0.0062
     24 C19         7.5368   -7.5391   -2.6272 C.ar      1 <0>        -0.1215
     25 C20         8.3434   -6.4725   -2.9614 C.ar      1 <0>        -0.0399
     26 C21         8.1212   -5.1695   -2.4575 C.ar      1 <0>        -0.1543
     27 C22         9.0286   -4.1900   -2.8973 C.2       1 <0>         0.0320
     28 C23        10.0294   -4.5272   -3.7525 C.2       1 <0>        -0.2862
     29 S1          9.7722   -6.2761   -3.9968 S.3       1 <0>         0.1438
     30 C24        11.0727   -3.6650   -4.3281 C.cat     1 <0>         0.6507
     31 N3         11.9814   -4.1807   -5.1591 N.pl3     1 <0>        -0.7611
     32 N4         11.1110   -2.3667   -4.0195 N.pl3     1 <0>        -0.7592
     33 H2         -0.5969    2.4571   -0.9567 H         1 <0>         0.1338
     34 H3          1.5719    3.5520   -0.5686 H         1 <0>         0.1355
     35 H4          3.6085    2.1973   -0.3046 H         1 <0>         0.1319
     36 H5          1.2876   -1.3653   -0.8306 H         1 <0>         0.1385
     37 H6         -0.7391    0.0047   -1.0921 H         1 <0>         0.1360
     38 H7          7.7539   -3.1600    1.2184 H         1 <0>         0.1277
     39 H8          8.2156   -3.8636    3.5325 H         1 <0>         0.1309
     40 H9          6.5579   -5.2030    4.7660 H         1 <0>         0.1318
     41 H10         4.4383   -5.8381    3.6857 H         1 <0>         0.1345
     42 H11         3.9731   -5.1274    1.3745 H         1 <0>         0.1326
     43 H12         5.3909   -5.9464   -0.5778 H         1 <0>         0.1494
     44 H13         5.8360   -8.1823   -1.5015 H         1 <0>         0.1574
     45 H14         7.7371   -8.5186   -3.0356 H         1 <0>         0.1510
     46 H15         8.9302   -3.1701   -2.5561 H         1 <0>         0.1523
     47 H16        11.9536   -5.1240   -5.3833 H         1 <0>         0.4447
     48 H17        10.4507   -1.9921   -3.4157 H         1 <0>         0.4454
     49 H18        11.7991   -1.7981   -4.3991 H         1 <0>         0.4370
     50 H19        12.6695   -3.6121   -5.5387 H         1 <0>         0.4370
@<TRIPOS>BOND
     1    1    6 ar
     2    1    2 ar
     3    1   33 1
     4    2    3 ar
     5    2   34 1
     6    3    4 ar
     7    3   35 1
     8    4    5 ar
     9    4    7 1
    10    5    6 ar
    11    5   36 1
    12    6   37 1
    13    7   11 2
    14    7    8 1
    15    8    9 2
    16    9   10 1
    17    9   12 1
    18   10   11 1
    19   12   13 1
    20   12   14 1
    21   12   20 1
    22   14   19 ar
    23   14   15 ar
    24   15   16 ar
    25   15   38 1
    26   16   17 ar
    27   16   39 1
    28   17   18 ar
    29   17   40 1
    30   18   19 ar
    31   18   41 1
    32   19   42 1
    33   20   21 1
    34   21   26 ar
    35   21   22 ar
    36   22   23 ar
    37   22   43 1
    38   23   24 ar
    39   23   44 1
    40   24   25 ar
    41   24   45 1
    42   25   29 1
    43   25   26 ar
    44   26   27 1
    45   27   28 2
    46   27   46 1
    47   28   29 1
    48   28   30 1
    49   30   31 2
    50   30   32 1
    51   31   47 1
    52   31   50 1
    53   32   48 1
    54   32   49 1
@<TRIPOS>MOLECULE
CHEMBL387576
   27    28     0     0     0
SMALL
USER_CHARGES

@<TRIPOS>ATOM
      1 C1         -0.0026    1.4291    0.0102 C.3       1 <0>         0.0363
      2 O1          0.0116    0.0002    0.0044 O.3       1 <0>        -0.3520
      3 C2         -1.1835   -0.6238    0.0080 C.2       1 <0>         0.5304
      4 O2         -2.2094    0.0280    0.0158 O.2       1 <0>        -0.4714
      5 C3         -1.2458   -2.0925    0.0024 C.2       1 <0>         0.0537
      6 C4         -2.3827   -2.8657    0.1007 C.2       1 <0>        -0.1517
      7 C5         -1.9904   -4.2048    0.0545 C.2       1 <0>         0.0590
      8 N1         -0.6892   -4.2605   -0.0653 N.2       1 <0>        -0.2272
      9 N2         -0.1827   -2.9554   -0.1077 N.am      1 <0>        -0.3840
     10 C6          1.1139   -2.6088   -0.2310 C.2       1 <0>         0.6242
     11 O3          1.5738   -2.3572   -1.3267 O.2       1 <0>        -0.4136
     12 C7          1.9749   -2.5351    0.9654 C.ar      1 <0>        -0.1508
     13 C8          1.4819   -2.9344    2.2103 C.ar      1 <0>        -0.0455
     14 C9          2.2914   -2.8635    3.3239 C.ar      1 <0>        -0.1204
     15 C10         3.5910   -2.3971    3.2107 C.ar      1 <0>         0.0039
     16 C11         4.0859   -1.9997    1.9792 C.ar      1 <0>        -0.1207
     17 C12         3.2883   -2.0711    0.8570 C.ar      1 <0>        -0.0326
     18 Cl1         4.6037   -2.3098    4.6180 Cl        1 <0>        -0.0507
     19 H1          1.0214    1.8027    0.0065 H         1 <0>         0.1091
     20 H2         -0.5245    1.7909   -0.8757 H         1 <0>         0.0677
     21 H3         -0.5155    1.7837    0.9042 H         1 <0>         0.0682
     22 H4         -3.3948   -2.5012    0.1966 H         1 <0>         0.1769
     23 H5         -2.6532   -5.0557    0.1092 H         1 <0>         0.2100
     24 H6          0.4687   -3.2974    2.3000 H         1 <0>         0.1375
     25 H7          1.9116   -3.1718    4.2868 H         1 <0>         0.1458
     26 H8          5.0997   -1.6367    1.8976 H         1 <0>         0.1481
     27 H9          3.6766   -1.7649   -0.1032 H         1 <0>         0.1498
@<TRIPOS>BOND
     1    1    2 1
     2    1   19 1
     3    1   20 1
     4    1   21 1
     5    2    3 1
     6    3    4 2
     7    3    5 1
     8    5    9 1
     9    5    6 2
    10    6    7 1
    11    6   22 1
    12    7    8 2
    13    7   23 1
    14    8    9 1
    15    9   10 am
    16   10   11 2
    17   10   12 1
    18   12   17 ar
    19   12   13 ar
    20   13   14 ar
    21   13   24 1
    22   14   15 ar
    23   14   25 1
    24   15   16 ar
    25   15   18 1
    26   16   17 ar
    27   16   26 1
    28   17   27 1
@<TRIPOS>MOLECULE
CHEMBL57779
   35    37     0     0     0
SMALL
USER_CHARGES

@<TRIPOS>ATOM
      1 C1         -0.0202    1.3577   -0.0406 C.ar      1 <0>        -0.1015
      2 C2          1.1697    2.0545   -0.0601 C.ar      1 <0>        -0.0968
      3 C3          2.3778    1.3734   -0.0880 C.ar      1 <0>         0.0323
      4 C4          2.3944   -0.0216   -0.0962 C.ar      1 <0>         0.0344
      5 C5          1.2062   -0.7266   -0.0765 C.ar      1 <0>        -0.0901
      6 C6         -0.0112   -0.0398   -0.0485 C.ar      1 <0>        -0.0422
      7 C7         -1.2805   -0.7868   -0.0269 C.2       1 <0>        -0.1104
      8 C8         -2.4502   -0.1242    0.0005 C.2       1 <0>        -0.0791
      9 C9         -3.7176   -0.8701    0.0221 C.ar      1 <0>        -0.1258
     10 C10        -3.7216   -2.2687    0.0203 C.ar      1 <0>        -0.0471
     11 C11        -4.9424   -2.9245    0.0417 C.ar      1 <0>        -0.1169
     12 C12        -6.1142   -2.1879    0.0640 C.ar      1 <0>         0.1387
     13 N1         -6.0943   -0.8694    0.0654 N.ar      1 <0>        -0.4957
     14 C13        -4.9539   -0.1877    0.0510 C.ar      1 <0>         0.3743
     15 N2         -4.9772    1.1738    0.0590 N.2       1 <0>        -0.6321
     16 C14        -5.0769    1.8235    1.1991 C.2       1 <0>         0.6823
     17 N3         -5.0484    1.1361    2.3841 N.pl3     1 <0>        -0.8758
     18 N4         -5.2092    3.1874    1.2012 N.pl3     1 <0>        -0.8344
     19 Cl1        -5.0016   -4.6595    0.0399 Cl        1 <0>        -0.0579
     20 O1          3.6932   -0.4416   -0.1248 O.3       1 <0>        -0.3083
     21 C15         4.4581    0.7028   -0.5470 C.3       1 <0>         0.2129
     22 O2          3.6665    1.8237   -0.1113 O.3       1 <0>        -0.3081
     23 H1         -0.9585    1.8917   -0.0147 H         1 <0>         0.1403
     24 H2          1.1610    3.1344   -0.0539 H         1 <0>         0.1379
     25 H3          1.2180   -1.8065   -0.0828 H         1 <0>         0.1385
     26 H4         -1.2717   -1.8668   -0.0330 H         1 <0>         0.1246
     27 H5         -2.4591    0.9558    0.0067 H         1 <0>         0.1305
     28 H6         -2.7956   -2.8242    0.0024 H         1 <0>         0.1451
     29 H7         -7.0632   -2.7031    0.0802 H         1 <0>         0.1631
     30 H8         -4.8793    0.1810    2.3869 H         1 <0>         0.4126
     31 H9         -5.2294    3.6739    0.3623 H         1 <0>         0.4242
     32 H10        -5.2827    3.6662    2.0415 H         1 <0>         0.4103
     33 H11         5.4339    0.7114   -0.0614 H         1 <0>         0.1336
     34 H12         4.5687    0.7106   -1.6313 H         1 <0>         0.0862
     35 H13        -5.1973    1.6047    3.2203 H         1 <0>         0.4002
@<TRIPOS>BOND
     1    1    6 ar
     2    1    2 ar
     3    1   23 1
     4    2    3 ar
     5    2   24 1
     6    3   22 1
     7    3    4 ar
     8    4    5 ar
     9    4   20 1
    10    5    6 ar
    11    5   25 1
    12    6    7 1
    13    7    8 2
    14    7   26 1
    15    8    9 1
    16    8   27 1
    17    9   14 ar
    18    9   10 ar
    19   10   11 ar
    20   10   28 1
    21   11   12 ar
    22   11   19 1
    23   12   13 ar
    24   12   29 1
    25   13   14 ar
    26   14   15 1
    27   15   16 2
    28   16   17 1
    29   16   18 1
    30   17   30 1
    31   17   35 1
    32   18   31 1
    33   18   32 1
    34   20   21 1
    35   21   22 1
    36   21   33 1
    37   21   34 1
@<TRIPOS>MOLECULE
CHEMBL57779__1
   35    37     0     0     0
SMALL
USER_CHARGES

@<TRIPOS>ATOM
      1 C1         -0.0169    1.3931    0.0097 C.ar      1 <0>        -0.1023
      2 C2          1.1682    2.0984    0.0022 C.ar      1 <0>        -0.0976
      3 C3          2.3813    1.4259   -0.0135 C.ar      1 <0>         0.0352
      4 C4          2.4078    0.0311   -0.0214 C.ar      1 <0>         0.0353
      5 C5          1.2244   -0.6822   -0.0140 C.ar      1 <0>        -0.0873
      6 C6          0.0021   -0.0041    0.0020 C.ar      1 <0>        -0.0471
      7 C7         -1.2623   -0.7602    0.0103 C.2       1 <0>        -0.0936
      8 C8         -2.4360   -0.1064    0.0253 C.2       1 <0>        -0.0994
      9 C9         -3.6997   -0.8621    0.0336 C.ar      1 <0>        -0.1397
     10 C10        -3.6929   -2.2617    0.0319 C.ar      1 <0>        -0.0333
     11 C11        -4.9091   -2.9252    0.0405 C.ar      1 <0>        -0.1265
     12 C12        -6.0835   -2.1935    0.0504 C.ar      1 <0>         0.1542
     13 N1         -6.0667   -0.8739    0.0513 N.ar      1 <0>        -0.4352
     14 C13        -4.9342   -0.1913    0.0493 C.ar      1 <0>         0.4038
     15 N2         -4.9652    1.1991    0.0566 N.pl3     1 <0>        -0.6372
     16 C14        -6.1731    1.8609    0.0719 C.2       1 <0>         0.6056
     17 N3         -7.2868    1.1843    0.0797 N.2       1 <0>        -0.7394
     18 N4         -6.2038    3.2356    0.0791 N.pl3     1 <0>        -0.8978
     19 Cl1        -4.9593   -4.6605    0.0383 Cl        1 <0>        -0.0573
     20 O1          3.7098   -0.3798   -0.0364 O.3       1 <0>        -0.3075
     21 C15         4.4709    0.7700   -0.4506 C.3       1 <0>         0.2127
     22 O2          3.6669    1.8853   -0.0233 O.3       1 <0>        -0.3076
     23 H1         -0.9592    1.9205    0.0260 H         1 <0>         0.1387
     24 H2          1.1517    3.1783    0.0082 H         1 <0>         0.1388
     25 H3          1.2438   -1.7620   -0.0200 H         1 <0>         0.1400
     26 H4         -1.2458   -1.8401    0.0044 H         1 <0>         0.1292
     27 H5         -2.4525    0.9735    0.0313 H         1 <0>         0.1213
     28 H6         -2.7629   -2.8107    0.0238 H         1 <0>         0.1487
     29 H7         -7.0311   -2.7116    0.0570 H         1 <0>         0.1677
     30 H8         -4.1362    1.7027    0.0508 H         1 <0>         0.4203
     31 H9         -8.1374    1.6504    0.0905 H         1 <0>         0.3357
     32 H10        -5.3748    3.7392    0.0734 H         1 <0>         0.3888
     33 H11        -7.0544    3.7016    0.0900 H         1 <0>         0.4115
     34 H12         5.4415    0.7856    0.0451 H         1 <0>         0.1344
     35 H13         4.5928    0.7786   -1.5337 H         1 <0>         0.0869
@<TRIPOS>BOND
     1    1    6 ar
     2    1    2 ar
     3    1   23 1
     4    2    3 ar
     5    2   24 1
     6    3   22 1
     7    3    4 ar
     8    4    5 ar
     9    4   20 1
    10    5    6 ar
    11    5   25 1
    12    6    7 1
    13    7    8 2
    14    7   26 1
    15    8    9 1
    16    8   27 1
    17    9   14 ar
    18    9   10 ar
    19   10   11 ar
    20   10   28 1
    21   11   12 ar
    22   11   19 1
    23   12   13 ar
    24   12   29 1
    25   13   14 ar
    26   14   15 1
    27   15   16 1
    28   15   30 1
    29   16   17 2
    30   16   18 1
    31   17   31 1
    32   18   32 1
    33   18   33 1
    34   20   21 1
    35   21   22 1
    36   21   34 1
    37   21   35 1
@<TRIPOS>MOLECULE
CHEMBL57779__2
   35    37     0     0     0
SMALL
USER_CHARGES

@<TRIPOS>ATOM
      1 C1         -0.0887    1.3014   -0.9053 C.ar      1 <0>        -0.0998
      2 C2          1.1414    1.8826   -0.6797 C.ar      1 <0>        -0.0977
      3 C3          2.3012    1.2492   -1.1015 C.ar      1 <0>         0.0381
      4 C4          2.2281    0.0195   -1.7562 C.ar      1 <0>         0.0347
      5 C5          0.9991   -0.5688   -1.9859 C.ar      1 <0>        -0.0858
      6 C6         -0.1695    0.0698   -1.5604 C.ar      1 <0>        -0.0516
      7 C7         -1.4822   -0.5536   -1.8026 C.2       1 <0>        -0.0851
      8 C8         -2.6040    0.0621   -1.3933 C.2       1 <0>        -0.1069
      9 C9         -3.9161   -0.5610   -1.6352 C.ar      1 <0>        -0.1338
     10 C10        -4.0088   -1.7970   -2.2852 C.ar      1 <0>        -0.0256
     11 C11        -5.2669   -2.3406   -2.4881 C.ar      1 <0>        -0.1261
     12 C12        -6.3842   -1.6536   -2.0471 C.ar      1 <0>         0.1595
     13 N1         -6.2737   -0.4889   -1.4367 N.ar      1 <0>        -0.5024
     14 C13        -5.0973    0.0717   -1.2126 C.ar      1 <0>         0.3938
     15 N2         -5.0290    1.2980   -0.5600 N.pl3     1 <0>        -0.6792
     16 C14        -6.1696    1.8616   -0.0321 C.2       1 <0>         0.6381
     17 N3         -6.1328    3.0677    0.4598 N.2       1 <0>        -0.7865
     18 N4         -7.3470    1.1515   -0.0241 N.pl3     1 <0>        -0.8336
     19 Cl1        -5.4402   -3.8708   -3.2894 Cl        1 <0>        -0.0499
     20 O1          3.4950   -0.3865   -2.0633 O.3       1 <0>        -0.3073
     21 C15         4.3130    0.7935   -1.9572 C.3       1 <0>         0.2126
     22 O2          3.6139    1.6103   -0.9997 O.3       1 <0>        -0.3068
     23 H1         -0.9891    1.7958   -0.5718 H         1 <0>         0.1390
     24 H2          1.2020    2.8345   -0.1732 H         1 <0>         0.1399
     25 H3          0.9414   -1.5208   -2.4926 H         1 <0>         0.1401
     26 H4         -1.5428   -1.5056   -2.3091 H         1 <0>         0.1292
     27 H5         -2.5435    1.0140   -0.8867 H         1 <0>         0.1232
     28 H6         -3.1218   -2.3140   -2.6206 H         1 <0>         0.1509
     29 H7         -7.3645   -2.0782   -2.2057 H         1 <0>         0.1728
     30 H8         -4.1782    1.7563   -0.4766 H         1 <0>         0.4203
     31 H9         -7.3337    0.1919    0.1167 H         1 <0>         0.4122
     32 H10        -8.1910    1.6102   -0.1592 H         1 <0>         0.4108
     33 H11         5.3070    0.5386   -1.5896 H         1 <0>         0.1349
     34 H12         4.3782    1.3020   -2.9191 H         1 <0>         0.0874
     35 H13        -5.3022    3.5686    0.4542 H         1 <0>         0.3405
@<TRIPOS>BOND
     1    1    6 ar
     2    1    2 ar
     3    1   23 1
     4    2    3 ar
     5    2   24 1
     6    3   22 1
     7    3    4 ar
     8    4    5 ar
     9    4   20 1
    10    5    6 ar
    11    5   25 1
    12    6    7 1
    13    7    8 2
    14    7   26 1
    15    8    9 1
    16    8   27 1
    17    9   14 ar
    18    9   10 ar
    19   10   11 ar
    20   10   28 1
    21   11   12 ar
    22   11   19 1
    23   12   13 ar
    24   12   29 1
    25   13   14 ar
    26   14   15 1
    27   15   16 1
    28   15   30 1
    29   16   17 2
    30   16   18 1
    31   17   35 1
    32   18   31 1
    33   18   32 1
    34   20   21 1
    35   21   22 1
    36   21   33 1
    37   21   34 1
@<TRIPOS>MOLECULE
CHEMBL57779__3
   36    38     0     0     0
SMALL
USER_CHARGES

@<TRIPOS>ATOM
      1 C1         -0.0363    1.2074   -0.0700 C.ar      1 <0>        -0.0905
      2 C2          1.1627    1.8305   -0.3455 C.ar      1 <0>        -0.1038
      3 C3          2.3578    1.1413   -0.2003 C.ar      1 <0>         0.0556
      4 C4          2.3518   -0.1870    0.2258 C.ar      1 <0>         0.0363
      5 C5          1.1543   -0.8178    0.5039 C.ar      1 <0>        -0.0757
      6 C6         -0.0498   -0.1229    0.3573 C.ar      1 <0>        -0.0770
      7 C7         -1.3292   -0.7911    0.6528 C.2       1 <0>        -0.0281
      8 C8         -2.4852   -0.1212    0.5116 C.2       1 <0>        -0.1600
      9 C9         -3.7639   -0.7890    0.8070 C.ar      1 <0>        -0.0674
     10 C10        -3.7894   -2.1194    1.2412 C.ar      1 <0>        -0.0304
     11 C11        -5.0184   -2.7013    1.5061 C.ar      1 <0>        -0.0842
     12 C12        -6.1737   -1.9588    1.3357 C.ar      1 <0>         0.1541
     13 N1         -6.1263   -0.7055    0.9253 N.ar      1 <0>        -0.5151
     14 C13        -4.9801   -0.1006    0.6637 C.ar      1 <0>         0.3410
     15 N2         -4.9787    1.2245    0.2389 N.pl3     1 <0>        -0.6239
     16 C14        -6.1636    1.8592   -0.0306 C.cat     1 <0>         0.7454
     17 N3         -6.1742    3.1634   -0.2998 N.pl3     1 <0>        -0.7910
     18 N4         -7.3041    1.1715   -0.0232 N.pl3     1 <0>        -0.7646
     19 Cl1        -5.1085   -4.3485    2.0467 Cl        1 <0>        -0.0121
     20 O1          3.6416   -0.6310    0.2861 O.3       1 <0>        -0.3036
     21 C15         4.4069    0.3042   -0.4966 C.3       1 <0>         0.2118
     22 O2          3.6514    1.5264   -0.4055 O.3       1 <0>        -0.3031
     23 H1         -0.9643    1.7488   -0.1800 H         1 <0>         0.1366
     24 H2          1.1713    2.8587   -0.6760 H         1 <0>         0.1427
     25 H3          1.1486   -1.8461    0.8341 H         1 <0>         0.1437
     26 H4         -1.3378   -1.8194    0.9829 H         1 <0>         0.1343
     27 H5         -2.4766    0.9070    0.1815 H         1 <0>         0.1273
     28 H6         -2.8738   -2.6784    1.3662 H         1 <0>         0.1673
     29 H7         -7.1314   -2.4133    1.5421 H         1 <0>         0.1899
     30 H8         -4.1394    1.6991    0.1334 H         1 <0>         0.4497
     31 H9         -5.3436    3.6642   -0.3052 H         1 <0>         0.4400
     32 H10        -7.2908    0.2118    0.1173 H         1 <0>         0.4471
     33 H11        -8.1479    1.6303   -0.1583 H         1 <0>         0.4309
     34 H12         5.4015    0.4362   -0.0706 H         1 <0>         0.1400
     35 H13         4.4739   -0.0282   -1.5325 H         1 <0>         0.0922
     36 H14        -7.0126    3.6124   -0.4905 H         1 <0>         0.4446
@<TRIPOS>BOND
     1    1    6 ar
     2    1    2 ar
     3    1   23 1
     4    2    3 ar
     5    2   24 1
     6    3   22 1
     7    3    4 ar
     8    4    5 ar
     9    4   20 1
    10    5    6 ar
    11    5   25 1
    12    6    7 1
    13    7    8 2
    14    7   26 1
    15    8    9 1
    16    8   27 1
    17    9   14 ar
    18    9   10 ar
    19   10   11 ar
    20   10   28 1
    21   11   12 ar
    22   11   19 1
    23   12   13 ar
    24   12   29 1
    25   13   14 ar
    26   14   15 1
    27   15   16 1
    28   15   30 1
    29   16   17 2
    30   16   18 1
    31   17   31 1
    32   17   36 1
    33   18   32 1
    34   18   33 1
    35   20   21 1
    36   21   22 1
    37   21   34 1
    38   21   35 1
@<TRIPOS>MOLECULE
CHEMBL599001
   53    56     0     0     0
SMALL
USER_CHARGES

@<TRIPOS>ATOM
      1 C1         -0.7126    0.3222   -0.0349 C.ar      1 <0>        -0.1156
      2 C2          0.3234    1.2370   -0.0637 C.ar      1 <0>        -0.1176
      3 C3          1.6338    0.7970   -0.0742 C.ar      1 <0>        -0.1133
      4 C4          1.9083   -0.5577   -0.0554 C.ar      1 <0>        -0.0885
      5 C5          0.8723   -1.4724   -0.0257 C.ar      1 <0>        -0.0989
      6 C6         -0.4382   -1.0325   -0.0166 C.ar      1 <0>        -0.1225
      7 C7          3.3368   -1.0373   -0.0678 C.3       1 <0>         0.0993
      8 N1          3.8209   -1.1700    1.3128 N.3       1 <0>        -0.6814
      9 C8          5.2135   -1.6367    1.3399 C.3       1 <0>         0.0649
     10 C9          5.6811   -1.7623    2.7913 C.3       1 <0>         0.1348
     11 C10         7.1443   -2.1221    2.8182 C.ar      1 <0>        -0.1322
     12 C11         7.5383   -3.4304    2.6087 C.ar      1 <0>        -0.0932
     13 C12         8.8805   -3.7604    2.6334 C.ar      1 <0>        -0.1184
     14 C13         9.8286   -2.7820    2.8672 C.ar      1 <0>        -0.1050
     15 C14         9.4346   -1.4736    3.0758 C.ar      1 <0>        -0.1146
     16 C15         8.0928   -1.1428    3.0469 C.ar      1 <0>        -0.1061
     17 O1          4.9273   -2.7835    3.4479 O.3       1 <0>        -0.2797
     18 C16         4.8243   -2.7010    4.7993 C.ar      1 <0>         0.2277
     19 C17         5.5244   -1.7331    5.4785 C.ar      1 <0>        -0.2278
     20 C18         5.4445   -1.6175    6.8593 C.ar      1 <0>         0.0063
     21 C19         4.6461   -2.4904    7.5715 C.ar      1 <0>        -0.1321
     22 C20         3.9365   -3.4671    6.9064 C.ar      1 <0>        -0.0367
     23 C21         3.9877   -3.6139    5.5003 C.ar      1 <0>        -0.1633
     24 C22         3.2027   -4.6544    4.9737 C.2       1 <0>         0.0428
     25 C23         2.4607   -5.4323    5.8050 C.2       1 <0>        -0.2940
     26 S1          2.8260   -4.7555    7.4153 S.3       1 <0>         0.1304
     27 C24         1.5804   -6.5596    5.4628 C.cat     1 <0>         0.6511
     28 N2          0.9251   -7.2113    6.4263 N.pl3     1 <0>        -0.7631
     29 N3          1.4365   -6.9313    4.1886 N.pl3     1 <0>        -0.7613
     30 H1         -1.7363    0.6660   -0.0222 H         1 <0>         0.1233
     31 H2          0.1090    2.2954   -0.0784 H         1 <0>         0.1241
     32 H3          2.4432    1.5117   -0.0974 H         1 <0>         0.1194
     33 H4          1.0867   -2.5308   -0.0113 H         1 <0>         0.1193
     34 H5         -1.2476   -1.7472    0.0062 H         1 <0>         0.1214
     35 H6          3.3908   -2.0052   -0.5663 H         1 <0>         0.0833
     36 H7          3.9570   -0.3180   -0.6027 H         1 <0>         0.0441
     37 H8          3.7208   -0.3012    1.8161 H         1 <0>         0.3429
     38 H9          5.2805   -2.6087    0.8512 H         1 <0>         0.0906
     39 H10         5.8466   -0.9216    0.8148 H         1 <0>         0.0625
     40 H11         5.5309   -0.8127    3.3049 H         1 <0>         0.0886
     41 H12         6.7976   -4.1948    2.4260 H         1 <0>         0.1234
     42 H13         9.1883   -4.7827    2.4704 H         1 <0>         0.1262
     43 H14        10.8772   -3.0400    2.8872 H         1 <0>         0.1276
     44 H15        10.1754   -0.7092    3.2588 H         1 <0>         0.1290
     45 H16         7.7852   -0.1198    3.2062 H         1 <0>         0.1244
     46 H17         6.1503   -1.0479    4.9261 H         1 <0>         0.1458
     47 H18         6.0037   -0.8499    7.3736 H         1 <0>         0.1520
     48 H19         4.5780   -2.4082    8.6462 H         1 <0>         0.1472
     49 H20         3.1890   -4.8352    3.9091 H         1 <0>         0.1516
     50 H21         1.0297   -6.9412    7.3520 H         1 <0>         0.4444
     51 H22         1.9126   -6.4578    3.4886 H         1 <0>         0.4449
     52 H23         0.8559   -7.6748    3.9629 H         1 <0>         0.4358
     53 H24         0.3445   -7.9548    6.2005 H         1 <0>         0.4359
@<TRIPOS>BOND
     1    1    6 ar
     2    1    2 ar
     3    1   30 1
     4    2    3 ar
     5    2   31 1
     6    3    4 ar
     7    3   32 1
     8    4    5 ar
     9    4    7 1
    10    5    6 ar
    11    5   33 1
    12    6   34 1
    13    7    8 1
    14    7   35 1
    15    7   36 1
    16    8    9 1
    17    8   37 1
    18    9   10 1
    19    9   38 1
    20    9   39 1
    21   10   11 1
    22   10   17 1
    23   10   40 1
    24   11   16 ar
    25   11   12 ar
    26   12   13 ar
    27   12   41 1
    28   13   14 ar
    29   13   42 1
    30   14   15 ar
    31   14   43 1
    32   15   16 ar
    33   15   44 1
    34   16   45 1
    35   17   18 1
    36   18   23 ar
    37   18   19 ar
    38   19   20 ar
    39   19   46 1
    40   20   21 ar
    41   20   47 1
    42   21   22 ar
    43   21   48 1
    44   22   26 1
    45   22   23 ar
    46   23   24 1
    47   24   25 2
    48   24   49 1
    49   25   26 1
    50   25   27 1
    51   27   28 2
    52   27   29 1
    53   28   50 1
    54   28   53 1
    55   29   51 1
    56   29   52 1
@<TRIPOS>MOLECULE
CHEMBL599001__1
   54    57     0     0     0
SMALL
USER_CHARGES

@<TRIPOS>ATOM
      1 C1         -0.7111    0.3264   -0.0325 C.ar      1 <0>        -0.0787
      2 C2          0.3245    1.2418   -0.0551 C.ar      1 <0>        -0.1115
      3 C3          1.6351    0.8025   -0.0649 C.ar      1 <0>        -0.0907
      4 C4          1.9102   -0.5521   -0.0517 C.ar      1 <0>        -0.1718
      5 C5          0.8746   -1.4675   -0.0282 C.ar      1 <0>        -0.0948
      6 C6         -0.4361   -1.0282   -0.0198 C.ar      1 <0>        -0.1156
      7 C7          3.3390   -1.0311   -0.0633 C.3       1 <0>         0.0463
      8 N1          3.8203   -1.1697    1.3177 N.4       1 <0>        -0.5110
      9 C8          5.2131   -1.6365    1.3063 C.3       1 <0>         0.0005
     10 C9          5.7143   -1.7809    2.7446 C.3       1 <0>         0.1109
     11 C10         7.1777   -2.1408    2.7329 C.ar      1 <0>        -0.1532
     12 C11         7.5665   -3.4462    2.4972 C.ar      1 <0>        -0.0887
     13 C12         8.9088   -3.7763    2.4865 C.ar      1 <0>        -0.1147
     14 C13         9.8623   -2.8009    2.7109 C.ar      1 <0>        -0.0877
     15 C14         9.4735   -1.4953    2.9456 C.ar      1 <0>        -0.1101
     16 C15         8.1313   -1.1644    2.9521 C.ar      1 <0>        -0.0997
     17 O1          4.9759   -2.8106    3.4053 O.3       1 <0>        -0.3121
     18 C16         4.9043   -2.7458    4.7597 C.ar      1 <0>         0.1945
     19 C17         5.6202   -1.7867    5.4349 C.ar      1 <0>        -0.2102
     20 C18         5.5725   -1.6891    6.8186 C.ar      1 <0>        -0.0019
     21 C19         4.7907   -2.5713    7.5378 C.ar      1 <0>        -0.1097
     22 C20         4.0657   -3.5394    6.8767 C.ar      1 <0>        -0.0478
     23 C21         4.0841   -3.6679    5.4681 C.ar      1 <0>        -0.1480
     24 C22         3.2869   -4.7015    4.9463 C.2       1 <0>         0.0139
     25 C23         2.5643   -5.4903    5.7845 C.2       1 <0>        -0.2755
     26 S1          2.9672   -4.8345    7.3945 S.3       1 <0>         0.1679
     27 C24         1.6761   -6.6131    5.4482 C.cat     1 <0>         0.6481
     28 N2          1.0433   -7.2774    6.4181 N.pl3     1 <0>        -0.7541
     29 N3          1.5025   -6.9682    4.1730 N.pl3     1 <0>        -0.7594
     30 H1         -1.7351    0.6697   -0.0204 H         1 <0>         0.1382
     31 H2          0.1096    2.3001   -0.0654 H         1 <0>         0.1391
     32 H3          2.4442    1.5176   -0.0832 H         1 <0>         0.1333
     33 H4          1.0895   -2.5259   -0.0182 H         1 <0>         0.1284
     34 H5         -1.2452   -1.7434   -0.0019 H         1 <0>         0.1357
     35 H6          3.3945   -1.9966   -0.5661 H         1 <0>         0.1401
     36 H7          3.9599   -0.3090   -0.5937 H         1 <0>         0.1427
     37 H8          3.7689   -0.2759    1.7831 H         1 <0>         0.4283
     38 H9          5.2686   -2.6021    0.8035 H         1 <0>         0.1486
     39 H10         5.8340   -0.9145    0.7759 H         1 <0>         0.1605
     40 H11         5.5763   -0.8381    3.2739 H         1 <0>         0.1092
     41 H12         6.8216   -4.2083    2.3219 H         1 <0>         0.1249
     42 H13         9.2126   -4.7964    2.3031 H         1 <0>         0.1324
     43 H14        10.9110   -3.0590    2.7031 H         1 <0>         0.1350
     44 H15        10.2184   -0.7333    3.1212 H         1 <0>         0.1360
     45 H16         7.8277   -0.1437    3.1318 H         1 <0>         0.1284
     46 H17         6.2332   -1.0943    4.8771 H         1 <0>         0.1472
     47 H18         6.1437   -0.9282    7.3297 H         1 <0>         0.1580
     48 H19         4.7477   -2.5032    8.6147 H         1 <0>         0.1538
     49 H20         3.2484   -4.8685    3.8800 H         1 <0>         0.1487
     50 H21         1.1694   -7.0194    7.3446 H         1 <0>         0.4467
     51 H22         1.9622   -6.4856    3.4683 H         1 <0>         0.4420
     52 H23         0.9167   -7.7088    3.9512 H         1 <0>         0.4396
     53 H24         0.4575   -8.0180    6.1963 H         1 <0>         0.4405
     54 H25         3.2455   -1.8381    1.8086 H         1 <0>         0.4277
@<TRIPOS>BOND
     1    1    6 ar
     2    1    2 ar
     3    1   30 1
     4    2    3 ar
     5    2   31 1
     6    3    4 ar
     7    3   32 1
     8    4    5 ar
     9    4    7 1
    10    5    6 ar
    11    5   33 1
    12    6   34 1
    13    7    8 1
    14    7   35 1
    15    7   36 1
    16    8    9 1
    17    8   37 1
    18    8   54 1
    19    9   10 1
    20    9   38 1
    21    9   39 1
    22   10   11 1
    23   10   17 1
    24   10   40 1
    25   11   16 ar
    26   11   12 ar
    27   12   13 ar
    28   12   41 1
    29   13   14 ar
    30   13   42 1
    31   14   15 ar
    32   14   43 1
    33   15   16 ar
    34   15   44 1
    35   16   45 1
    36   17   18 1
    37   18   23 ar
    38   18   19 ar
    39   19   20 ar
    40   19   46 1
    41   20   21 ar
    42   20   47 1
    43   21   22 ar
    44   21   48 1
    45   22   26 1
    46   22   23 ar
    47   23   24 1
    48   24   25 2
    49   24   49 1
    50   25   26 1
    51   25   27 1
    52   27   28 2
    53   27   29 1
    54   28   50 1
    55   28   53 1
    56   29   51 1
    57   29   52 1
@<TRIPOS>MOLECULE
CHEMBL599001__2
   53    56     0     0     0
SMALL
USER_CHARGES

@<TRIPOS>ATOM
      1 C1          0.8562    1.8397   -0.9598 C.ar      1 <0>        -0.1157
      2 C2          2.0912    2.4332   -0.7776 C.ar      1 <0>        -0.1221
      3 C3          3.2134    1.6490   -0.5860 C.ar      1 <0>        -0.1170
      4 C4          3.1004    0.2713   -0.5762 C.ar      1 <0>        -0.0886
      5 C5          1.8652   -0.3222   -0.7575 C.ar      1 <0>        -0.0954
      6 C6          0.7433    0.4620   -0.9505 C.ar      1 <0>        -0.1180
      7 C7          4.3240   -0.5836   -0.3684 C.3       1 <0>         0.0987
      8 N1          4.5081   -0.8341    1.0673 N.3       1 <0>        -0.6824
      9 C8          5.6943   -1.6664    1.3085 C.3       1 <0>         0.0687
     10 C9          5.8528   -1.9051    2.8115 C.3       1 <0>         0.1321
     11 C10         7.0697   -2.7589    3.0589 C.ar      1 <0>        -0.1311
     12 C11         8.3169   -2.1717    3.1606 C.ar      1 <0>        -0.0961
     13 C12         9.4332   -2.9549    3.3876 C.ar      1 <0>        -0.1187
     14 C13         9.3021   -4.3253    3.5134 C.ar      1 <0>        -0.1056
     15 C14         8.0547   -4.9124    3.4126 C.ar      1 <0>        -0.1140
     16 C15         6.9379   -4.1288    3.1899 C.ar      1 <0>        -0.1043
     17 O1          6.0068   -0.6512    3.4793 O.3       1 <0>        -0.2987
     18 C16         5.6605   -0.6051    4.7915 C.ar      1 <0>         0.2256
     19 C17         5.2939   -1.7594    5.4407 C.ar      1 <0>        -0.2208
     20 C18         4.9336   -1.7521    6.7810 C.ar      1 <0>         0.0064
     21 C19         4.9421   -0.5629    7.4828 C.ar      1 <0>        -0.1295
     22 C20         5.3076    0.6044    6.8476 C.ar      1 <0>        -0.0380
     23 C21         5.6859    0.6373    5.4848 C.ar      1 <0>        -0.1632
     24 C22         6.0360    1.9042    4.9865 C.2       1 <0>         0.0382
     25 C23         6.0003    2.9888    5.8046 C.2       1 <0>        -0.2924
     26 S1          5.4522    2.2992    7.3565 S.3       1 <0>         0.1344
     27 C24         6.3250    4.3876    5.4868 C.cat     1 <0>         0.6510
     28 N2          6.2302    5.3260    6.4316 N.pl3     1 <0>        -0.7620
     29 N3          6.7146    4.7189    4.2537 N.pl3     1 <0>        -0.7616
     30 H1         -0.0213    2.4524   -1.1050 H         1 <0>         0.1233
     31 H2          2.1795    3.5096   -0.7852 H         1 <0>         0.1206
     32 H3          4.1785    2.1127   -0.4444 H         1 <0>         0.1147
     33 H4          1.7770   -1.3985   -0.7502 H         1 <0>         0.1243
     34 H5         -0.2217   -0.0017   -1.0925 H         1 <0>         0.1250
     35 H6          4.1970   -1.5325   -0.8895 H         1 <0>         0.0858
     36 H7          5.1993   -0.0671   -0.7623 H         1 <0>         0.0422
     37 H8          4.5637    0.0323    1.5814 H         1 <0>         0.3444
     38 H9          5.5768   -2.6228    0.7991 H         1 <0>         0.1021
     39 H10         6.5792   -1.1574    0.9263 H         1 <0>         0.0473
     40 H11         4.9679   -2.4141    3.1938 H         1 <0>         0.1002
     41 H12         8.4194   -1.1011    3.0623 H         1 <0>         0.1209
     42 H13        10.4077   -2.4962    3.4664 H         1 <0>         0.1252
     43 H14        10.1743   -4.9372    3.6901 H         1 <0>         0.1274
     44 H15         7.9523   -5.9831    3.5106 H         1 <0>         0.1294
     45 H16         5.9628   -4.5871    3.1149 H         1 <0>         0.1270
     46 H17         5.2857   -2.6921    4.8963 H         1 <0>         0.1482
     47 H18         4.6481   -2.6707    7.2719 H         1 <0>         0.1533
     48 H19         4.6630   -0.5475    8.5260 H         1 <0>         0.1480
     49 H20         6.3335    2.0155    3.9543 H         1 <0>         0.1491
     50 H21         5.9471    5.0853    7.3276 H         1 <0>         0.4447
     51 H22         6.7836    4.0370    3.5672 H         1 <0>         0.4441
     52 H23         6.9288    5.6415    4.0441 H         1 <0>         0.4362
     53 H24         6.4443    6.2486    6.2221 H         1 <0>         0.4363
@<TRIPOS>BOND
     1    1    6 ar
     2    1    2 ar
     3    1   30 1
     4    2    3 ar
     5    2   31 1
     6    3    4 ar
     7    3   32 1
     8    4    5 ar
     9    4    7 1
    10    5    6 ar
    11    5   33 1
    12    6   34 1
    13    7    8 1
    14    7   35 1
    15    7   36 1
    16    8    9 1
    17    8   37 1
    18    9   10 1
    19    9   38 1
    20    9   39 1
    21   10   11 1
    22   10   17 1
    23   10   40 1
    24   11   16 ar
    25   11   12 ar
    26   12   13 ar
    27   12   41 1
    28   13   14 ar
    29   13   42 1
    30   14   15 ar
    31   14   43 1
    32   15   16 ar
    33   15   44 1
    34   16   45 1
    35   17   18 1
    36   18   23 ar
    37   18   19 ar
    38   19   20 ar
    39   19   46 1
    40   20   21 ar
    41   20   47 1
    42   21   22 ar
    43   21   48 1
    44   22   26 1
    45   22   23 ar
    46   23   24 1
    47   24   25 2
    48   24   49 1
    49   25   26 1
    50   25   27 1
    51   27   28 2
    52   27   29 1
    53   28   50 1
    54   28   53 1
    55   29   51 1
    56   29   52 1
@<TRIPOS>MOLECULE
CHEMBL599001__3
   54    57     0     0     0
SMALL
USER_CHARGES

@<TRIPOS>ATOM
      1 C1          0.8521    1.8462   -0.9669 C.ar      1 <0>        -0.0789
      2 C2          2.0885    2.4377   -0.7876 C.ar      1 <0>        -0.1158
      3 C3          3.2095    1.6518   -0.5959 C.ar      1 <0>        -0.0950
      4 C4          3.0939    0.2743   -0.5832 C.ar      1 <0>        -0.1714
      5 C5          1.8573   -0.3172   -0.7617 C.ar      1 <0>        -0.0907
      6 C6          0.7366    0.4687   -0.9547 C.ar      1 <0>        -0.1114
      7 C7          4.3160   -0.5825   -0.3753 C.3       1 <0>         0.0460
      8 N1          4.5017   -0.8305    1.0607 N.4       1 <0>        -0.5105
      9 C8          5.6930   -1.6657    1.2634 C.3       1 <0>         0.0013
     10 C9          5.8863   -1.9240    2.7590 C.3       1 <0>         0.1111
     11 C10         7.1085   -2.7808    2.9669 C.ar      1 <0>        -0.1534
     12 C11         8.3579   -2.1948    3.0471 C.ar      1 <0>        -0.0890
     13 C12         9.4790   -2.9807    3.2379 C.ar      1 <0>        -0.1147
     14 C13         9.3506   -4.3526    3.3488 C.ar      1 <0>        -0.0880
     15 C14         8.1011   -4.9385    3.2695 C.ar      1 <0>        -0.1100
     16 C15         6.9796   -4.1522    3.0830 C.ar      1 <0>        -0.0999
     17 O1          6.0561   -0.6789    3.4393 O.3       1 <0>        -0.3143
     18 C16         5.7405   -0.6498    4.7597 C.ar      1 <0>         0.1937
     19 C17         5.3889   -1.8126    5.4022 C.ar      1 <0>        -0.2086
     20 C18         5.0599   -1.8227    6.7505 C.ar      1 <0>        -0.0020
     21 C19         5.0850   -0.6428    7.4673 C.ar      1 <0>        -0.1091
     22 C20         5.4358    0.5327    6.8390 C.ar      1 <0>        -0.0481
     23 C21         5.7822    0.5834    5.4684 C.ar      1 <0>        -0.1475
     24 C22         6.1209    1.8568    4.9786 C.2       1 <0>         0.0132
     25 C23         6.1044    2.9306    5.8113 C.2       1 <0>        -0.2751
     26 S1          5.5925    2.2208    7.3664 S.3       1 <0>         0.1683
     27 C24         6.4219    4.3334    5.5043 C.cat     1 <0>         0.6481
     28 N2          6.3492    5.2595    6.4632 N.pl3     1 <0>        -0.7540
     29 N3          6.7827    4.6808    4.2668 N.pl3     1 <0>        -0.7594
     30 H1         -0.0244    2.4603   -1.1122 H         1 <0>         0.1381
     31 H2          2.1788    3.5139   -0.7975 H         1 <0>         0.1355
     32 H3          4.1756    2.1139   -0.4565 H         1 <0>         0.1285
     33 H4          1.7670   -1.3934   -0.7521 H         1 <0>         0.1334
     34 H5         -0.2295    0.0066   -1.0945 H         1 <0>         0.1391
     35 H6          4.1865   -1.5322   -0.8943 H         1 <0>         0.1427
     36 H7          5.1918   -0.0684   -0.7714 H         1 <0>         0.1403
     37 H8          4.6216    0.0487    1.5411 H         1 <0>         0.4279
     38 H9          5.5635   -2.6154    0.7444 H         1 <0>         0.1601
     39 H10         6.5688   -1.1516    0.8672 H         1 <0>         0.1482
     40 H11         5.0106   -2.4380    3.1551 H         1 <0>         0.1103
     41 H12         8.4582   -1.1230    2.9605 H         1 <0>         0.1249
     42 H13        10.4552   -2.5229    3.2998 H         1 <0>         0.1321
     43 H14        10.2266   -4.9667    3.4971 H         1 <0>         0.1349
     44 H15         8.0008   -6.0104    3.3558 H         1 <0>         0.1360
     45 H16         6.0030   -4.6096    3.0248 H         1 <0>         0.1287
     46 H17         5.3678   -2.7381    4.8460 H         1 <0>         0.1476
     47 H18         4.7857   -2.7477    7.2359 H         1 <0>         0.1581
     48 H19         4.8302   -0.6410    8.5168 H         1 <0>         0.1539
     49 H20         6.3943    1.9816    3.9413 H         1 <0>         0.1484
     50 H21         6.0870    5.0071    7.3624 H         1 <0>         0.4467
     51 H22         6.8355    4.0080    3.5701 H         1 <0>         0.4419
     52 H23         6.9921    5.6061    4.0644 H         1 <0>         0.4397
     53 H24         6.5586    6.1847    6.2608 H         1 <0>         0.4405
     54 H25         3.6910   -1.3063    1.4274 H         1 <0>         0.4281
@<TRIPOS>BOND
     1    1    6 ar
     2    1    2 ar
     3    1   30 1
     4    2    3 ar
     5    2   31 1
     6    3    4 ar
     7    3   32 1
     8    4    5 ar
     9    4    7 1
    10    5    6 ar
    11    5   33 1
    12    6   34 1
    13    7    8 1
    14    7   35 1
    15    7   36 1
    16    8    9 1
    17    8   37 1
    18    8   54 1
    19    9   10 1
    20    9   38 1
    21    9   39 1
    22   10   11 1
    23   10   17 1
    24   10   40 1
    25   11   16 ar
    26   11   12 ar
    27   12   13 ar
    28   12   41 1
    29   13   14 ar
    30   13   42 1
    31   14   15 ar
    32   14   43 1
    33   15   16 ar
    34   15   44 1
    35   16   45 1
    36   17   18 1
    37   18   23 ar
    38   18   19 ar
    39   19   20 ar
    40   19   46 1
    41   20   21 ar
    42   20   47 1
    43   21   22 ar
    44   21   48 1
    45   22   26 1
    46   22   23 ar
    47   23   24 1
    48   24   25 2
    49   24   49 1
    50   25   26 1
    51   25   27 1
    52   27   28 2
    53   27   29 1
    54   28   50 1
    55   28   53 1
    56   29   51 1
    57   29   52 1
@<TRIPOS>MOLECULE
CHEMBL556663
   40    42     0     0     0
SMALL
USER_CHARGES

@<TRIPOS>ATOM
      1 C1          1.0367    1.3799    3.0011 C.ar      1 <0>        -0.1288
      2 C2          1.6175    0.2225    3.4862 C.ar      1 <0>        -0.0995
      3 C3          2.5524   -0.4533    2.7268 C.ar      1 <0>        -0.1199
      4 C4          2.9089    0.0306    1.4749 C.ar      1 <0>         0.1507
      5 C5          2.3238    1.1931    0.9907 C.ar      1 <0>        -0.1420
      6 C6          1.3896    1.8644    1.7550 C.ar      1 <0>        -0.0979
      7 N1          3.8562   -0.6516    0.7032 N.am      1 <0>        -0.6744
      8 C7          3.9449   -1.9944    0.7771 C.2       1 <0>         0.7054
      9 O1          3.1418   -2.6211    1.4410 O.2       1 <0>        -0.5479
     10 N2          4.9236   -2.6426    0.1151 N.am      1 <0>        -0.6843
     11 C8          4.9523   -4.0395    0.1029 C.ar      1 <0>         0.2248
     12 C9          3.7499   -4.7571    0.1033 C.ar      1 <0>        -0.1060
     13 C10         3.7486   -6.1158    0.0911 C.ar      1 <0>        -0.0699
     14 C11         4.9678   -6.8186    0.0779 C.ar      1 <0>        -0.0841
     15 C12         4.9925   -8.2207    0.0647 C.ar      1 <0>        -0.0011
     16 C13         6.2097   -8.8811    0.0515 C.ar      1 <0>        -0.1666
     17 C14         7.4153   -8.1569    0.0518 C.ar      1 <0>        -0.0877
     18 C15         7.4114   -6.8000    0.0645 C.ar      1 <0>        -0.0863
     19 C16         6.1905   -6.0993    0.0775 C.ar      1 <0>         0.0158
     20 C17         6.1636   -4.6964    0.0850 C.ar      1 <0>        -0.1613
     21 C18         6.2420  -10.3589    0.0375 C.cat     1 <0>         0.6004
     22 N3          7.4099  -10.9995    0.0248 N.pl3     1 <0>        -0.7633
     23 N4          5.1031  -11.0501    0.0375 N.pl3     1 <0>        -0.7667
     24 H1          0.3025    1.9041    3.5950 H         1 <0>         0.1270
     25 H2          1.3400   -0.1531    4.4600 H         1 <0>         0.1279
     26 H3          3.0060   -1.3570    3.1063 H         1 <0>         0.1344
     27 H4          2.5993    1.5722    0.0176 H         1 <0>         0.1268
     28 H5          0.9339    2.7684    1.3788 H         1 <0>         0.1301
     29 H6          4.4490   -0.1581    0.1151 H         1 <0>         0.4115
     30 H7          5.6082   -2.1394   -0.3530 H         1 <0>         0.4165
     31 H8          2.8110   -4.2235    0.1137 H         1 <0>         0.1512
     32 H9          2.8132   -6.6557    0.0919 H         1 <0>         0.1443
     33 H10         4.0693   -8.7812    0.0651 H         1 <0>         0.1411
     34 H11         8.3560   -8.6874    0.0422 H         1 <0>         0.1341
     35 H12         8.3452   -6.2574    0.0650 H         1 <0>         0.1483
     36 H13         7.0863   -4.1351    0.0803 H         1 <0>         0.1452
     37 H14         8.2392  -10.4963    0.0248 H         1 <0>         0.4442
     38 H15         4.2527  -10.5836    0.0468 H         1 <0>         0.4429
     39 H16         5.1243  -12.0198    0.0283 H         1 <0>         0.4329
     40 H17         7.4311  -11.9692    0.0156 H         1 <0>         0.4323
@<TRIPOS>BOND
     1    1    6 ar
     2    1    2 ar
     3    1   24 1
     4    2    3 ar
     5    2   25 1
     6    3    4 ar
     7    3   26 1
     8    4    5 ar
     9    4    7 1
    10    5    6 ar
    11    5   27 1
    12    6   28 1
    13    7    8 am
    14    7   29 1
    15    8    9 2
    16    8   10 am
    17   10   11 1
    18   10   30 1
    19   11   20 ar
    20   11   12 ar
    21   12   13 ar
    22   12   31 1
    23   13   14 ar
    24   13   32 1
    25   14   19 ar
    26   14   15 ar
    27   15   16 ar
    28   15   33 1
    29   16   17 ar
    30   16   21 1
    31   17   18 ar
    32   17   34 1
    33   18   19 ar
    34   18   35 1
    35   19   20 ar
    36   20   36 1
    37   21   22 2
    38   21   23 1
    39   22   37 1
    40   22   40 1
    41   23   38 1
    42   23   39 1
@<TRIPOS>MOLECULE
CHEMBL599614
   63    67     0     0     0
SMALL
USER_CHARGES

@<TRIPOS>ATOM
      1 C1          0.1499    2.0191    0.8307 C.ar      1 <0>        -0.0982
      2 C2          1.4356    2.4950    0.6537 C.ar      1 <0>        -0.1111
      3 C3          2.5035    1.6172    0.6532 C.ar      1 <0>        -0.1055
      4 C4          2.2857    0.2637    0.8301 C.ar      1 <0>        -0.1364
      5 C5          1.0001   -0.2121    1.0081 C.ar      1 <0>        -0.0861
      6 C6         -0.0680    0.6655    1.0072 C.ar      1 <0>        -0.1149
      7 C7          3.4499   -0.6933    0.8285 C.3       1 <0>         0.1151
      8 C8          3.6256   -1.2683   -0.5534 C.2       1 <0>         0.5258
      9 O1          3.4542   -2.4538   -0.7432 O.2       1 <0>        -0.4893
     10 N1          3.9733   -0.4651   -1.5782 N.am      1 <0>        -0.6606
     11 C9          4.0432   -0.9777   -2.8731 C.ar      1 <0>         0.1668
     12 C10         3.1632   -1.9788   -3.2718 C.ar      1 <0>        -0.1281
     13 C11         3.2295   -2.4871   -4.5495 C.ar      1 <0>        -0.0378
     14 C12         4.1819   -1.9961   -5.4465 C.ar      1 <0>        -0.1414
     15 C13         5.0641   -0.9901   -5.0430 C.ar      1 <0>        -0.1014
     16 C14         4.9892   -0.4828   -3.7654 C.ar      1 <0>        -0.1488
     17 C15         4.2563   -2.5390   -6.8170 C.2       1 <0>         0.5734
     18 O2          3.6025   -3.5186   -7.1191 O.2       1 <0>        -0.5334
     19 N2          5.0489   -1.9489   -7.7335 N.am      1 <0>        -0.6152
     20 C16         5.9787   -0.8397   -7.4753 C.3       1 <0>         0.0872
     21 C17         6.6474   -0.4801   -8.8189 C.3       1 <0>        -0.1366
     22 C18         5.6420   -1.0292   -9.8654 C.3       1 <0>        -0.1348
     23 C19         5.1319   -2.3130   -9.1597 C.3       1 <0>         0.1041
     24 O3          3.1983   -1.7509    1.7560 O.3       1 <0>        -0.2711
     25 C20         3.6195   -1.5639    3.0333 C.ar      1 <0>         0.2160
     26 C21         4.1594   -0.3554    3.4029 C.ar      1 <0>        -0.2248
     27 C22         4.6008   -0.1267    4.6987 C.ar      1 <0>         0.0056
     28 C23         4.4978   -1.1304    5.6413 C.ar      1 <0>        -0.1252
     29 C24         3.9585   -2.3487    5.2881 C.ar      1 <0>        -0.0387
     30 C25         3.4931   -2.6189    3.9798 C.ar      1 <0>        -0.1564
     31 C26         2.9660   -3.9068    3.7812 C.2       1 <0>         0.0353
     32 C27         2.9264   -4.7904    4.8129 C.2       1 <0>        -0.2877
     33 S1          3.6490   -3.8657    6.1571 S.3       1 <0>         0.1403
     34 C28         2.4206   -6.1714    4.8180 C.cat     1 <0>         0.6505
     35 N3          2.4648   -6.8943    5.9395 N.pl3     1 <0>        -0.7619
     36 N4          1.9172   -6.7021    3.7012 N.pl3     1 <0>        -0.7587
     37 H1         -0.6841    2.7054    0.8356 H         1 <0>         0.1307
     38 H2          1.6057    3.5525    0.5154 H         1 <0>         0.1330
     39 H3          3.5079    1.9890    0.5141 H         1 <0>         0.1280
     40 H4          0.8299   -1.2697    1.1460 H         1 <0>         0.1262
     41 H5         -1.0724    0.2937    1.1458 H         1 <0>         0.1293
     42 H6          4.3566   -0.1630    1.1194 H         1 <0>         0.1185
     43 H7          4.1749    0.4696   -1.4151 H         1 <0>         0.4148
     44 H8          2.4274   -2.3579   -2.5780 H         1 <0>         0.1395
     45 H9          2.5466   -3.2648   -4.8581 H         1 <0>         0.1410
     46 H10         5.8015   -0.6087   -5.7337 H         1 <0>         0.1664
     47 H11         5.6681    0.2972   -3.4540 H         1 <0>         0.1347
     48 H12         5.4312    0.0212   -7.0916 H         1 <0>         0.0811
     49 H13         6.7361   -1.1507   -6.7558 H         1 <0>         0.0799
     50 H14         6.7565    0.5998   -8.9185 H         1 <0>         0.0873
     51 H15         7.6129   -0.9768   -8.9142 H         1 <0>         0.0810
     52 H16         4.8291   -0.3229  -10.0342 H         1 <0>         0.0789
     53 H17         6.1458   -1.2734  -10.8006 H         1 <0>         0.0891
     54 H18         5.8367   -3.1323   -9.3017 H         1 <0>         0.0724
     55 H19         4.1477   -2.5883   -9.5388 H         1 <0>         0.0815
     56 H20         4.2422    0.4329    2.6694 H         1 <0>         0.1473
     57 H21         5.0226    0.8304    4.9680 H         1 <0>         0.1555
     58 H22         4.8390   -0.9616    6.6520 H         1 <0>         0.1500
     59 H23         2.5924   -4.1938    2.8093 H         1 <0>         0.1539
     60 H24         2.8305   -6.5087    6.7510 H         1 <0>         0.4444
     61 H25         1.8851   -6.1769    2.8864 H         1 <0>         0.4459
     62 H26         1.5836   -7.6129    3.7046 H         1 <0>         0.4368
     63 H27         2.1312   -7.8051    5.9430 H         1 <0>         0.4368
@<TRIPOS>BOND
     1    1    6 ar
     2    1    2 ar
     3    1   37 1
     4    2    3 ar
     5    2   38 1
     6    3    4 ar
     7    3   39 1
     8    4    5 ar
     9    4    7 1
    10    5    6 ar
    11    5   40 1
    12    6   41 1
    13    7    8 1
    14    7   24 1
    15    7   42 1
    16    8    9 2
    17    8   10 am
    18   10   11 1
    19   10   43 1
    20   11   16 ar
    21   11   12 ar
    22   12   13 ar
    23   12   44 1
    24   13   14 ar
    25   13   45 1
    26   14   15 ar
    27   14   17 1
    28   15   16 ar
    29   15   46 1
    30   16   47 1
    31   17   18 2
    32   17   19 am
    33   19   23 1
    34   19   20 1
    35   20   21 1
    36   20   48 1
    37   20   49 1
    38   21   22 1
    39   21   50 1
    40   21   51 1
    41   22   23 1
    42   22   52 1
    43   22   53 1
    44   23   54 1
    45   23   55 1
    46   24   25 1
    47   25   30 ar
    48   25   26 ar
    49   26   27 ar
    50   26   56 1
    51   27   28 ar
    52   27   57 1
    53   28   29 ar
    54   28   58 1
    55   29   33 1
    56   29   30 ar
    57   30   31 1
    58   31   32 2
    59   31   59 1
    60   32   33 1
    61   32   34 1
    62   34   35 2
    63   34   36 1
    64   35   60 1
    65   35   63 1
    66   36   61 1
    67   36   62 1
@<TRIPOS>MOLECULE
CHEMBL599614__1
   63    67     0     0     0
SMALL
USER_CHARGES

@<TRIPOS>ATOM
      1 C1         -0.0083    1.1400    0.2282 C.ar      1 <0>        -0.0978
      2 C2          1.1143    1.9466    0.2235 C.ar      1 <0>        -0.1116
      3 C3          2.3740    1.3781    0.2515 C.ar      1 <0>        -0.1047
      4 C4          2.5111    0.0030    0.2846 C.ar      1 <0>        -0.1395
      5 C5          1.3885   -0.8036    0.2901 C.ar      1 <0>        -0.0857
      6 C6          0.1288   -0.2351    0.2607 C.ar      1 <0>        -0.1155
      7 C7          3.8845   -0.6169    0.3140 C.3       1 <0>         0.1144
      8 C8          4.2251   -1.0162    1.7267 C.2       1 <0>         0.5278
      9 O1          4.3718   -2.1869    2.0072 O.2       1 <0>        -0.4884
     10 N1          4.3669   -0.0723    2.6782 N.am      1 <0>        -0.6617
     11 C9          4.7912   -0.4301    3.9574 C.ar      1 <0>         0.1665
     12 C10         5.7122   -1.4601    4.1204 C.ar      1 <0>        -0.1284
     13 C11         6.1332   -1.8159    5.3819 C.ar      1 <0>        -0.0376
     14 C12         5.6349   -1.1408    6.4995 C.ar      1 <0>        -0.1409
     15 C13         4.7102   -0.1063    6.3321 C.ar      1 <0>        -0.1017
     16 C14         4.2970    0.2476    5.0675 C.ar      1 <0>        -0.1471
     17 C15         6.0837   -1.5198    7.8535 C.2       1 <0>         0.5734
     18 O2          6.7664   -2.5133    8.0117 O.2       1 <0>        -0.5332
     19 N2          5.7366   -0.7646    8.9145 N.am      1 <0>        -0.6151
     20 C16         4.8268    0.3898    8.8836 C.3       1 <0>         0.0871
     21 C17         4.7507    0.9518   10.3189 C.3       1 <0>        -0.1367
     22 C18         6.0610    0.4305   10.9660 C.3       1 <0>        -0.1347
     23 C19         6.2016   -0.9632   10.2993 C.3       1 <0>         0.1041
     24 O3          3.9034   -1.7731   -0.5255 O.3       1 <0>        -0.2714
     25 C20         4.1199   -1.5693   -1.8504 C.ar      1 <0>         0.2176
     26 C21         4.3981   -0.3041   -2.3090 C.ar      1 <0>        -0.2248
     27 C22         4.6251   -0.0566   -3.6557 C.ar      1 <0>         0.0062
     28 C23         4.5722   -1.0997   -4.5589 C.ar      1 <0>        -0.1256
     29 C24         4.2950   -2.3753   -4.1164 C.ar      1 <0>        -0.0384
     30 C25         4.0629   -2.6686   -2.7521 C.ar      1 <0>        -0.1567
     31 C26         3.7989   -4.0185   -2.4620 C.2       1 <0>         0.0354
     32 C27         3.7850   -4.9377   -3.4629 C.2       1 <0>        -0.2880
     33 S1          4.1361   -3.9552   -4.9106 S.3       1 <0>         0.1400
     34 C28         3.5338   -6.3841   -3.3756 C.cat     1 <0>         0.6505
     35 N3          3.5620   -7.1344   -4.4795 N.pl3     1 <0>        -0.7619
     36 N4          3.2776   -6.9469   -2.1924 N.pl3     1 <0>        -0.7590
     37 H1         -0.9925    1.5843    0.2109 H         1 <0>         0.1307
     38 H2          1.0072    3.0210    0.1977 H         1 <0>         0.1333
     39 H3          3.2511    2.0083    0.2472 H         1 <0>         0.1291
     40 H4          1.4957   -1.8780    0.3156 H         1 <0>         0.1253
     41 H5         -0.7482   -0.8653    0.2647 H         1 <0>         0.1290
     42 H6          4.6170    0.1056   -0.0460 H         1 <0>         0.1190
     43 H7          4.1737    0.8559    2.4732 H         1 <0>         0.4153
     44 H8          6.0969   -1.9815    3.2564 H         1 <0>         0.1383
     45 H9          6.8476   -2.6160    5.5078 H         1 <0>         0.1414
     46 H10         4.3229    0.4172    7.1937 H         1 <0>         0.1666
     47 H11         3.5854    1.0494    4.9372 H         1 <0>         0.1344
     48 H12         5.2164    1.1510    8.2076 H         1 <0>         0.0812
     49 H13         3.8365    0.0727    8.5568 H         1 <0>         0.0799
     50 H14         4.7341    2.0416   10.3059 H         1 <0>         0.0873
     51 H15         3.8791    0.5579   10.8416 H         1 <0>         0.0810
     52 H16         6.9039    1.0743   10.7148 H         1 <0>         0.0789
     53 H17         5.9522    0.3356   12.0464 H         1 <0>         0.0891
     54 H18         5.5746   -1.6949   10.8087 H         1 <0>         0.0724
     55 H19         7.2433   -1.2837   10.3074 H         1 <0>         0.0817
     56 H20         4.4406    0.5152   -1.6066 H         1 <0>         0.1466
     57 H21         4.8414    0.9456   -3.9950 H         1 <0>         0.1554
     58 H22         4.7472   -0.9166   -5.6088 H         1 <0>         0.1499
     59 H23         3.6077   -4.3251   -1.4442 H         1 <0>         0.1535
     60 H24         3.7481   -6.7254   -5.3392 H         1 <0>         0.4445
     61 H25         3.2571   -6.4018   -1.3903 H         1 <0>         0.4459
     62 H26         3.1119   -7.9009   -2.1348 H         1 <0>         0.4368
     63 H27         3.3963   -8.0884   -4.4219 H         1 <0>         0.4367
@<TRIPOS>BOND
     1    1    6 ar
     2    1    2 ar
     3    1   37 1
     4    2    3 ar
     5    2   38 1
     6    3    4 ar
     7    3   39 1
     8    4    5 ar
     9    4    7 1
    10    5    6 ar
    11    5   40 1
    12    6   41 1
    13    7    8 1
    14    7   24 1
    15    7   42 1
    16    8    9 2
    17    8   10 am
    18   10   11 1
    19   10   43 1
    20   11   16 ar
    21   11   12 ar
    22   12   13 ar
    23   12   44 1
    24   13   14 ar
    25   13   45 1
    26   14   15 ar
    27   14   17 1
    28   15   16 ar
    29   15   46 1
    30   16   47 1
    31   17   18 2
    32   17   19 am
    33   19   23 1
    34   19   20 1
    35   20   21 1
    36   20   48 1
    37   20   49 1
    38   21   22 1
    39   21   50 1
    40   21   51 1
    41   22   23 1
    42   22   52 1
    43   22   53 1
    44   23   54 1
    45   23   55 1
    46   24   25 1
    47   25   30 ar
    48   25   26 ar
    49   26   27 ar
    50   26   56 1
    51   27   28 ar
    52   27   57 1
    53   28   29 ar
    54   28   58 1
    55   29   33 1
    56   29   30 ar
    57   30   31 1
    58   31   32 2
    59   31   59 1
    60   32   33 1
    61   32   34 1
    62   34   35 2
    63   34   36 1
    64   35   60 1
    65   35   63 1
    66   36   61 1
    67   36   62 1
@<TRIPOS>MOLECULE
CHEMBL182460
   59    64     0     0     0
SMALL
USER_CHARGES

@<TRIPOS>ATOM
      1 C1          1.1761    1.2791    0.2519 C.ar      1 <0>        -0.0474
      2 C2          1.0053    0.0875    0.9339 C.ar      1 <0>        -0.1162
      3 C3          2.0614   -0.7899    1.0705 C.ar      1 <0>        -0.0503
      4 C4          3.3030   -0.4735    0.5194 C.ar      1 <0>        -0.1628
      5 C5          3.4689    0.7294   -0.1669 C.ar      1 <0>        -0.0698
      6 C6          2.4053    1.5986   -0.2968 C.ar      1 <0>        -0.1142
      7 C7          4.4410   -1.4109    0.6629 C.2       1 <0>         0.4436
      8 N1          5.6570   -0.9563    0.7480 N.pl3     1 <0>        -0.5584
      9 C8          6.8084   -1.8452    0.8630 C.3       1 <0>         0.0627
     10 C9          6.4806   -3.0670    1.7194 C.3       1 <0>        -0.1147
     11 C10         5.2024   -3.6966    1.2312 C.ar      1 <0>        -0.0330
     12 C11         4.2014   -2.8712    0.7167 C.ar      1 <0>        -0.1501
     13 C12         3.0098   -3.4269    0.2634 C.ar      1 <0>        -0.0295
     14 C13         2.8263   -4.7946    0.3320 C.ar      1 <0>        -0.0530
     15 C14         3.8210   -5.6055    0.8481 C.ar      1 <0>        -0.0468
     16 C15         5.0095   -5.0581    1.2892 C.ar      1 <0>        -0.1106
     17 C16         1.5379   -5.4048   -0.1566 C.3       1 <0>        -0.1118
     18 C17         1.3966   -6.9255   -0.0637 C.3       1 <0>        -0.1595
     19 C18         1.5967   -6.2575   -1.4256 C.3       1 <0>        -0.1149
     20 C19         2.9386   -6.4229   -2.0912 C.ar      1 <0>        -0.0104
     21 C20         3.8422   -7.3585   -1.5907 C.ar      1 <0>        -0.1065
     22 C21         5.0619   -7.5324   -2.1686 C.ar      1 <0>        -0.0867
     23 C22         5.4186   -6.7586   -3.2877 C.ar      1 <0>        -0.0689
     24 C23         6.6677   -6.9129   -3.9079 C.ar      1 <0>        -0.0124
     25 C24         6.9826   -6.1334   -5.0075 C.ar      1 <0>        -0.1523
     26 C25         6.0622   -5.1931   -5.5032 C.ar      1 <0>        -0.0918
     27 C26         4.8492   -5.0300   -4.9162 C.ar      1 <0>        -0.0825
     28 C27         4.4989   -5.8071   -3.7969 C.ar      1 <0>        -0.0075
     29 C28         3.2474   -5.6601   -3.1756 C.ar      1 <0>        -0.1088
     30 C29         8.2977   -6.2904   -5.6659 C.cat     1 <0>         0.5974
     31 N2          8.6060   -5.5431   -6.7242 N.pl3     1 <0>        -0.7593
     32 N3          9.1735   -7.1792   -5.2004 N.pl3     1 <0>        -0.7633
     33 H1          0.3454    1.9607    0.1437 H         1 <0>         0.1480
     34 H2          0.0435   -0.1562    1.3604 H         1 <0>         0.1498
     35 H3          1.9269   -1.7197    1.6033 H         1 <0>         0.1439
     36 H4          4.4281    0.9800   -0.5955 H         1 <0>         0.1333
     37 H5          2.5324    2.5301   -0.8283 H         1 <0>         0.1480
     38 H6          7.1052   -2.1758   -0.1323 H         1 <0>         0.1159
     39 H7          7.6356   -1.3011    1.3190 H         1 <0>         0.1361
     40 H8          7.2927   -3.7903    1.6459 H         1 <0>         0.1273
     41 H9          6.3606   -2.7605    2.7585 H         1 <0>         0.1100
     42 H10         2.2331   -2.7936   -0.1391 H         1 <0>         0.1492
     43 H11         3.6701   -6.6737    0.8986 H         1 <0>         0.1442
     44 H12         5.7817   -5.6975    1.6908 H         1 <0>         0.1476
     45 H13         0.6424   -4.8050    0.0056 H         1 <0>         0.1331
     46 H14         2.2355   -7.4845    0.3509 H         1 <0>         0.1058
     47 H15         0.4079   -7.3263    0.1599 H         1 <0>         0.1192
     48 H16         0.7397   -6.2190   -2.0980 H         1 <0>         0.1350
     49 H17         3.5706   -7.9539   -0.7315 H         1 <0>         0.1379
     50 H18         5.7526   -8.2606   -1.7698 H         1 <0>         0.1417
     51 H19         7.3778   -7.6337   -3.5302 H         1 <0>         0.1424
     52 H20         6.3240   -4.5925   -6.3618 H         1 <0>         0.1360
     53 H21         4.1530   -4.3033   -5.3083 H         1 <0>         0.1485
     54 H22         2.5348   -4.9424   -3.5545 H         1 <0>         0.1408
     55 H23         7.9681   -4.8957   -7.0632 H         1 <0>         0.4447
     56 H24         8.9489   -7.7235   -4.4296 H         1 <0>         0.4428
     57 H25        10.0359   -7.2822   -5.6322 H         1 <0>         0.4357
     58 H26         9.4685   -5.6461   -7.1560 H         1 <0>         0.4352
     59 H27         5.8026    0.0026    0.7342 H         1 <0>         0.4375
@<TRIPOS>BOND
     1    1    6 ar
     2    1    2 ar
     3    1   33 1
     4    2    3 ar
     5    2   34 1
     6    3    4 ar
     7    3   35 1
     8    4    5 ar
     9    4    7 1
    10    5    6 ar
    11    5   36 1
    12    6   37 1
    13    7   12 1
    14    7    8 2
    15    8    9 1
    16    8   59 1
    17    9   10 1
    18    9   38 1
    19    9   39 1
    20   10   11 1
    21   10   40 1
    22   10   41 1
    23   11   16 ar
    24   11   12 ar
    25   12   13 ar
    26   13   14 ar
    27   13   42 1
    28   14   15 ar
    29   14   17 1
    30   15   16 ar
    31   15   43 1
    32   16   44 1
    33   17   19 1
    34   17   18 1
    35   17   45 1
    36   18   19 1
    37   18   46 1
    38   18   47 1
    39   19   20 1
    40   19   48 1
    41   20   29 ar
    42   20   21 ar
    43   21   22 ar
    44   21   49 1
    45   22   23 ar
    46   22   50 1
    47   23   28 ar
    48   23   24 ar
    49   24   25 ar
    50   24   51 1
    51   25   26 ar
    52   25   30 1
    53   26   27 ar
    54   26   52 1
    55   27   28 ar
    56   27   53 1
    57   28   29 ar
    58   29   54 1
    59   30   31 2
    60   30   32 1
    61   31   55 1
    62   31   58 1
    63   32   56 1
    64   32   57 1
@<TRIPOS>MOLECULE
CHEMBL182460__1
   59    64     0     0     0
SMALL
USER_CHARGES

@<TRIPOS>ATOM
      1 C1         -0.0164    1.3798    0.0113 C.ar      1 <0>        -0.0510
      2 C2          0.1247    0.1998    0.7197 C.ar      1 <0>        -0.1182
      3 C3          1.3278   -0.4757    0.7077 C.ar      1 <0>        -0.0515
      4 C4          2.4029    0.0334   -0.0206 C.ar      1 <0>        -0.1593
      5 C5          2.2544    1.2234   -0.7328 C.ar      1 <0>        -0.0690
      6 C6          1.0463    1.8897   -0.7130 C.ar      1 <0>        -0.1142
      7 C7          3.6973   -0.6867   -0.0373 C.2       1 <0>         0.4408
      8 N1          4.8132   -0.0253   -0.1374 N.pl3     1 <0>        -0.5538
      9 C8          6.1080   -0.6963   -0.1847 C.3       1 <0>         0.0596
     10 C9          6.1279   -1.9249    0.7230 C.3       1 <0>        -0.1154
     11 C10         4.9245   -2.7837    0.4354 C.ar      1 <0>        -0.0305
     12 C11         3.7300   -2.1635    0.0661 C.ar      1 <0>        -0.1502
     13 C12         2.6029   -2.9334   -0.2006 C.ar      1 <0>        -0.0314
     14 C13         2.6759   -4.3088   -0.0918 C.ar      1 <0>        -0.0581
     15 C14         3.8620   -4.9158    0.2799 C.ar      1 <0>        -0.0475
     16 C15         4.9858   -4.1551    0.5350 C.ar      1 <0>        -0.1079
     17 C16         1.4592   -5.1504   -0.3785 C.3       1 <0>        -0.1087
     18 C17         1.5385   -6.6424   -0.0488 C.3       1 <0>        -0.1581
     19 C18         1.5614   -6.1789   -1.5067 C.3       1 <0>        -0.1116
     20 C19         0.3276   -6.4276   -2.3354 C.ar      1 <0>        -0.0144
     21 C20        -0.8337   -6.8865   -1.7165 C.ar      1 <0>        -0.1076
     22 C21        -1.9647   -7.1209   -2.4362 C.ar      1 <0>        -0.0842
     23 C22        -1.9650   -6.8974   -3.8248 C.ar      1 <0>        -0.0690
     24 C23        -3.1139   -7.1284   -4.5964 C.ar      1 <0>        -0.0113
     25 C24        -3.0756   -6.8965   -5.9605 C.ar      1 <0>        -0.1518
     26 C25        -1.8979   -6.4333   -6.5732 C.ar      1 <0>        -0.0906
     27 C26        -0.7769   -6.2043   -5.8428 C.ar      1 <0>        -0.0819
     28 C27        -0.7834   -6.4302   -4.4542 C.ar      1 <0>        -0.0078
     29 C28         0.3628   -6.1954   -3.6764 C.ar      1 <0>        -0.1084
     30 C29        -4.2828   -7.1383   -6.7800 C.cat     1 <0>         0.5983
     31 N2         -4.2517   -6.9169   -8.0929 N.pl3     1 <0>        -0.7594
     32 N3         -5.4010   -7.5775   -6.2051 N.pl3     1 <0>        -0.7632
     33 H1         -0.9614    1.9026    0.0201 H         1 <0>         0.1462
     34 H2         -0.7084   -0.1931    1.2836 H         1 <0>         0.1478
     35 H3          1.4368   -1.3965    1.2614 H         1 <0>         0.1439
     36 H4          3.0834    1.6227   -1.2983 H         1 <0>         0.1349
     37 H5          0.9300    2.8111   -1.2643 H         1 <0>         0.1477
     38 H6          6.3126   -1.0061   -1.2095 H         1 <0>         0.1214
     39 H7          6.8827   -0.0009    0.1385 H         1 <0>         0.1379
     40 H8          7.0360   -2.4985    0.5377 H         1 <0>         0.1308
     41 H9          6.1061   -1.6066    1.7653 H         1 <0>         0.1096
     42 H10         1.6768   -2.4593   -0.4904 H         1 <0>         0.1474
     43 H11         3.9113   -5.9915    0.3629 H         1 <0>         0.1474
     44 H12         5.9084   -4.6360    0.8246 H         1 <0>         0.1508
     45 H13         0.4996   -4.6535   -0.2360 H         1 <0>         0.1256
     46 H14         2.4707   -7.0152    0.3756 H         1 <0>         0.1122
     47 H15         0.6309   -7.1272    0.3110 H         1 <0>         0.1139
     48 H16         2.5088   -6.2467   -2.0415 H         1 <0>         0.1250
     49 H17        -0.8360   -7.0588   -0.6503 H         1 <0>         0.1391
     50 H18        -2.8574   -7.4770   -1.9436 H         1 <0>         0.1422
     51 H19        -4.0205   -7.4845   -4.1299 H         1 <0>         0.1431
     52 H20        -1.8849   -6.2579   -7.6388 H         1 <0>         0.1364
     53 H21         0.1203   -5.8489   -6.3278 H         1 <0>         0.1488
     54 H22         1.2690   -5.8356   -4.1408 H         1 <0>         0.1399
     55 H23        -3.4373   -6.5971   -8.5117 H         1 <0>         0.4447
     56 H24        -5.4236   -7.7387   -5.2488 H         1 <0>         0.4430
     57 H25        -6.1927   -7.7361   -6.7426 H         1 <0>         0.4353
     58 H26        -5.0435   -7.0755   -8.6304 H         1 <0>         0.4348
     59 H27         4.7834    0.9432   -0.1822 H         1 <0>         0.4374
@<TRIPOS>BOND
     1    1    6 ar
     2    1    2 ar
     3    1   33 1
     4    2    3 ar
     5    2   34 1
     6    3    4 ar
     7    3   35 1
     8    4    5 ar
     9    4    7 1
    10    5    6 ar
    11    5   36 1
    12    6   37 1
    13    7   12 1
    14    7    8 2
    15    8    9 1
    16    8   59 1
    17    9   10 1
    18    9   38 1
    19    9   39 1
    20   10   11 1
    21   10   40 1
    22   10   41 1
    23   11   16 ar
    24   11   12 ar
    25   12   13 ar
    26   13   14 ar
    27   13   42 1
    28   14   15 ar
    29   14   17 1
    30   15   16 ar
    31   15   43 1
    32   16   44 1
    33   17   19 1
    34   17   18 1
    35   17   45 1
    36   18   19 1
    37   18   46 1
    38   18   47 1
    39   19   20 1
    40   19   48 1
    41   20   29 ar
    42   20   21 ar
    43   21   22 ar
    44   21   49 1
    45   22   23 ar
    46   22   50 1
    47   23   28 ar
    48   23   24 ar
    49   24   25 ar
    50   24   51 1
    51   25   26 ar
    52   25   30 1
    53   26   27 ar
    54   26   52 1
    55   27   28 ar
    56   27   53 1
    57   28   29 ar
    58   29   54 1
    59   30   31 2
    60   30   32 1
    61   31   55 1
    62   31   58 1
    63   32   56 1
    64   32   57 1
@<TRIPOS>MOLECULE
CHEMBL182460__2
   59    64     0     0     0
SMALL
USER_CHARGES

@<TRIPOS>ATOM
      1 C1         -0.0164    1.3798    0.0113 C.ar      1 <0>        -0.0516
      2 C2          0.1247    0.1998    0.7197 C.ar      1 <0>        -0.1192
      3 C3          1.3278   -0.4757    0.7077 C.ar      1 <0>        -0.0519
      4 C4          2.4029    0.0334   -0.0206 C.ar      1 <0>        -0.1583
      5 C5          2.2544    1.2234   -0.7328 C.ar      1 <0>        -0.0677
      6 C6          1.0463    1.8898   -0.7130 C.ar      1 <0>        -0.1132
      7 C7          3.6973   -0.6867   -0.0373 C.2       1 <0>         0.4402
      8 N1          4.8132   -0.0253   -0.1374 N.pl3     1 <0>        -0.5528
      9 C8          6.1080   -0.6963   -0.1847 C.3       1 <0>         0.0589
     10 C9          6.1279   -1.9249    0.7230 C.3       1 <0>        -0.1148
     11 C10         4.9245   -2.7837    0.4354 C.ar      1 <0>        -0.0307
     12 C11         3.7300   -2.1635    0.0661 C.ar      1 <0>        -0.1501
     13 C12         2.6029   -2.9334   -0.2006 C.ar      1 <0>        -0.0314
     14 C13         2.6759   -4.3088   -0.0918 C.ar      1 <0>        -0.0579
     15 C14         3.8620   -4.9158    0.2799 C.ar      1 <0>        -0.0476
     16 C15         4.9858   -4.1551    0.5350 C.ar      1 <0>        -0.1077
     17 C16         1.4592   -5.1504   -0.3785 C.3       1 <0>        -0.1087
     18 C17         1.6480   -6.6675   -0.4399 C.3       1 <0>        -0.1585
     19 C18         0.9286   -6.0337    0.7525 C.3       1 <0>        -0.1115
     20 C19        -0.5635   -6.2233    0.8459 C.ar      1 <0>        -0.0140
     21 C20        -1.2498   -6.8012   -0.2205 C.ar      1 <0>        -0.1076
     22 C21        -2.5970   -6.9863   -0.1679 C.ar      1 <0>        -0.0841
     23 C22        -3.3098   -6.5903    0.9781 C.ar      1 <0>        -0.0689
     24 C23        -4.6990   -6.7672    1.0654 C.ar      1 <0>        -0.0113
     25 C24        -5.3657   -6.3651    2.2098 C.ar      1 <0>        -0.1517
     26 C25        -4.6620   -5.7836    3.2791 C.ar      1 <0>        -0.0905
     27 C26        -3.3181   -5.6045    3.2125 C.ar      1 <0>        -0.0820
     28 C27        -2.6112   -6.0027    2.0631 C.ar      1 <0>        -0.0079
     29 C28        -1.2195   -5.8325    1.9729 C.ar      1 <0>        -0.1087
     30 C29        -6.8301   -6.5482    2.3084 C.cat     1 <0>         0.5981
     31 N2         -7.4769   -6.1632    3.4071 N.pl3     1 <0>        -0.7595
     32 N3         -7.5020   -7.0981    1.2985 N.pl3     1 <0>        -0.7632
     33 H1         -0.9614    1.9026    0.0201 H         1 <0>         0.1456
     34 H2         -0.7084   -0.1932    1.2836 H         1 <0>         0.1453
     35 H3          1.4368   -1.3965    1.2614 H         1 <0>         0.1430
     36 H4          3.0834    1.6227   -1.2983 H         1 <0>         0.1357
     37 H5          0.9300    2.8111   -1.2643 H         1 <0>         0.1483
     38 H6          6.3126   -1.0061   -1.2095 H         1 <0>         0.1225
     39 H7          6.8827   -0.0009    0.1385 H         1 <0>         0.1382
     40 H8          7.0360   -2.4985    0.5377 H         1 <0>         0.1310
     41 H9          6.1061   -1.6066    1.7653 H         1 <0>         0.1089
     42 H10         1.6768   -2.4593   -0.4904 H         1 <0>         0.1474
     43 H11         3.9113   -5.9915    0.3629 H         1 <0>         0.1474
     44 H12         5.9084   -4.6360    0.8246 H         1 <0>         0.1508
     45 H13         0.7289   -4.7061   -1.0548 H         1 <0>         0.1255
     46 H14         1.0420   -7.2215   -1.1568 H         1 <0>         0.1138
     47 H15         2.6523   -7.0568   -0.2728 H         1 <0>         0.1122
     48 H16         1.4597   -6.0061    1.7040 H         1 <0>         0.1256
     49 H17        -0.7047   -7.1061   -1.1016 H         1 <0>         0.1389
     50 H18        -3.1162   -7.4348   -1.0020 H         1 <0>         0.1421
     51 H19        -5.2436   -7.2132    0.2463 H         1 <0>         0.1429
     52 H20        -5.1976   -5.4750    4.1647 H         1 <0>         0.1364
     53 H21        -2.7914   -5.1560    4.0419 H         1 <0>         0.1489
     54 H22        -0.6731   -5.3902    2.7927 H         1 <0>         0.1403
     55 H23        -6.9875   -5.7627    4.1427 H         1 <0>         0.4447
     56 H24        -7.0309   -7.3785    0.4983 H         1 <0>         0.4430
     57 H25        -8.4623   -7.2182    1.3632 H         1 <0>         0.4353
     58 H26        -8.4372   -6.2833    3.4718 H         1 <0>         0.4348
     59 H27         4.7834    0.9432   -0.1822 H         1 <0>         0.4374
@<TRIPOS>BOND
     1    1    6 ar
     2    1    2 ar
     3    1   33 1
     4    2    3 ar
     5    2   34 1
     6    3    4 ar
     7    3   35 1
     8    4    5 ar
     9    4    7 1
    10    5    6 ar
    11    5   36 1
    12    6   37 1
    13    7   12 1
    14    7    8 2
    15    8    9 1
    16    8   59 1
    17    9   10 1
    18    9   38 1
    19    9   39 1
    20   10   11 1
    21   10   40 1
    22   10   41 1
    23   11   16 ar
    24   11   12 ar
    25   12   13 ar
    26   13   14 ar
    27   13   42 1
    28   14   15 ar
    29   14   17 1
    30   15   16 ar
    31   15   43 1
    32   16   44 1
    33   17   19 1
    34   17   18 1
    35   17   45 1
    36   18   19 1
    37   18   46 1
    38   18   47 1
    39   19   20 1
    40   19   48 1
    41   20   29 ar
    42   20   21 ar
    43   21   22 ar
    44   21   49 1
    45   22   23 ar
    46   22   50 1
    47   23   28 ar
    48   23   24 ar
    49   24   25 ar
    50   24   51 1
    51   25   26 ar
    52   25   30 1
    53   26   27 ar
    54   26   52 1
    55   27   28 ar
    56   27   53 1
    57   28   29 ar
    58   29   54 1
    59   30   31 2
    60   30   32 1
    61   31   55 1
    62   31   58 1
    63   32   56 1
    64   32   57 1
@<TRIPOS>MOLECULE
CHEMBL182460__3
   59    64     0     0     0
SMALL
USER_CHARGES

@<TRIPOS>ATOM
      1 C1          0.1553    1.3605    0.2019 C.ar      1 <0>        -0.0483
      2 C2          0.2914    0.1637    0.8826 C.ar      1 <0>        -0.1181
      3 C3          1.4795   -0.5353    0.8240 C.ar      1 <0>        -0.0525
      4 C4          2.5447   -0.0331    0.0765 C.ar      1 <0>        -0.1616
      5 C5          2.4014    1.1740   -0.6075 C.ar      1 <0>        -0.0676
      6 C6          1.2082    1.8638   -0.5412 C.ar      1 <0>        -0.1125
      7 C7          3.8231   -0.7783    0.0099 C.2       1 <0>         0.4413
      8 N1          4.9497   -0.1372   -0.1010 N.pl3     1 <0>        -0.5551
      9 C8          6.2289   -0.8327   -0.1971 C.3       1 <0>         0.0587
     10 C9          6.2451   -2.0843    0.6786 C.3       1 <0>        -0.1117
     11 C10         5.0176   -2.9111    0.3992 C.ar      1 <0>        -0.0346
     12 C11         3.8276   -2.2577    0.0752 C.ar      1 <0>        -0.1486
     13 C12         2.6787   -2.9976   -0.1829 C.ar      1 <0>        -0.0291
     14 C13         2.7258   -4.3766   -0.1106 C.ar      1 <0>        -0.0523
     15 C14         3.9076   -5.0167    0.2164 C.ar      1 <0>        -0.0476
     16 C15         5.0528   -4.2856    0.4628 C.ar      1 <0>        -0.1105
     17 C16         1.4853   -5.1859   -0.3884 C.3       1 <0>        -0.1117
     18 C17         1.6037   -6.7094   -0.3111 C.3       1 <0>        -0.1602
     19 C18         0.8588   -5.9435    0.7840 C.3       1 <0>        -0.1142
     20 C19         1.5294   -5.8232    2.1282 C.ar      1 <0>        -0.0099
     21 C20         1.0475   -4.9011    3.0554 C.ar      1 <0>        -0.0972
     22 C21         1.6304   -4.7677    4.2779 C.ar      1 <0>        -0.0886
     23 C22         2.7351   -5.5710    4.6137 C.ar      1 <0>        -0.0686
     24 C23         3.3592   -5.4595    5.8654 C.ar      1 <0>        -0.0135
     25 C24         4.4438   -6.2676    6.1594 C.ar      1 <0>        -0.1511
     26 C25         4.9205   -7.1943    5.2156 C.ar      1 <0>        -0.0899
     27 C26         4.3294   -7.3161    3.9997 C.ar      1 <0>        -0.0830
     28 C27         3.2250   -6.5093    3.6702 C.ar      1 <0>        -0.0055
     29 C28         2.5933   -6.6208    2.4202 C.ar      1 <0>        -0.1193
     30 C29         5.1069   -6.1550    7.4768 C.cat     1 <0>         0.5974
     31 N2          6.1508   -6.9300    7.7652 N.pl3     1 <0>        -0.7586
     32 N3          4.6599   -5.2787    8.3745 N.pl3     1 <0>        -0.7638
     33 H1         -0.7781    1.9018    0.2471 H         1 <0>         0.1476
     34 H2         -0.5340   -0.2239    1.4613 H         1 <0>         0.1477
     35 H3          1.5847   -1.4693    1.3561 H         1 <0>         0.1413
     36 H4          3.2227    1.5681   -1.1876 H         1 <0>         0.1352
     37 H5          1.0959    2.7984   -1.0707 H         1 <0>         0.1490
     38 H6          6.4022   -1.1201   -1.2341 H         1 <0>         0.1227
     39 H7          7.0253   -0.1616    0.1244 H         1 <0>         0.1370
     40 H8          7.1364   -2.6712    0.4567 H         1 <0>         0.1284
     41 H9          6.2550   -1.7926    1.7288 H         1 <0>         0.1044
     42 H10         1.7560   -2.4977   -0.4378 H         1 <0>         0.1495
     43 H11         3.9366   -6.0950    0.2711 H         1 <0>         0.1428
     44 H12         5.9720   -4.7922    0.7174 H         1 <0>         0.1461
     45 H13         0.8108   -4.7706   -1.1372 H         1 <0>         0.1332
     46 H14         1.0072   -7.2966   -1.0093 H         1 <0>         0.1192
     47 H15         2.5789   -7.1263   -0.0594 H         1 <0>         0.1047
     48 H16        -0.2278   -6.0268    0.8063 H         1 <0>         0.1360
     49 H17         0.1994   -4.2832    2.8000 H         1 <0>         0.1377
     50 H18         1.2469   -4.0485    4.9865 H         1 <0>         0.1405
     51 H19         2.9966   -4.7488    6.5932 H         1 <0>         0.1417
     52 H20         5.7682   -7.8169    5.4610 H         1 <0>         0.1368
     53 H21         4.7073   -8.0323    3.2850 H         1 <0>         0.1493
     54 H22         2.9524   -7.3337    1.6928 H         1 <0>         0.1411
     55 H23         6.4764   -7.5683    7.1113 H         1 <0>         0.4450
     56 H24         3.8995   -4.7143    8.1645 H         1 <0>         0.4425
     57 H25         5.0947   -5.2049    9.2385 H         1 <0>         0.4356
     58 H26         6.5857   -6.8562    8.6291 H         1 <0>         0.4352
     59 H27         4.9390    0.8325   -0.1207 H         1 <0>         0.4377
@<TRIPOS>BOND
     1    1    6 ar
     2    1    2 ar
     3    1   33 1
     4    2    3 ar
     5    2   34 1
     6    3    4 ar
     7    3   35 1
     8    4    5 ar
     9    4    7 1
    10    5    6 ar
    11    5   36 1
    12    6   37 1
    13    7   12 1
    14    7    8 2
    15    8    9 1
    16    8   59 1
    17    9   10 1
    18    9   38 1
    19    9   39 1
    20   10   11 1
    21   10   40 1
    22   10   41 1
    23   11   16 ar
    24   11   12 ar
    25   12   13 ar
    26   13   14 ar
    27   13   42 1
    28   14   15 ar
    29   14   17 1
    30   15   16 ar
    31   15   43 1
    32   16   44 1
    33   17   19 1
    34   17   18 1
    35   17   45 1
    36   18   19 1
    37   18   46 1
    38   18   47 1
    39   19   20 1
    40   19   48 1
    41   20   29 ar
    42   20   21 ar
    43   21   22 ar
    44   21   49 1
    45   22   23 ar
    46   22   50 1
    47   23   28 ar
    48   23   24 ar
    49   24   25 ar
    50   24   51 1
    51   25   26 ar
    52   25   30 1
    53   26   27 ar
    54   26   52 1
    55   27   28 ar
    56   27   53 1
    57   28   29 ar
    58   29   54 1
    59   30   31 2
    60   30   32 1
    61   31   55 1
    62   31   58 1
    63   32   56 1
    64   32   57 1
@<TRIPOS>MOLECULE
CHEMBL362600
   48    51     0     0     0
SMALL
USER_CHARGES

@<TRIPOS>ATOM
      1 C1          0.4698    2.1505    1.4905 C.ar      1 <0>        -0.1070
      2 C2          1.6989    2.7540    1.2902 C.ar      1 <0>        -0.1199
      3 C3          2.8206    1.9837    1.0652 C.ar      1 <0>        -0.0996
      4 C4          2.7137    0.5906    1.0398 C.ar      1 <0>        -0.0762
      5 C5          1.4691   -0.0117    1.2429 C.ar      1 <0>        -0.1048
      6 C6          0.3562    0.7715    1.4668 C.ar      1 <0>        -0.1196
      7 C7          3.9074   -0.2394    0.7994 C.2       1 <0>        -0.0596
      8 C8          3.8010   -1.5782    0.7757 C.2       1 <0>        -0.1425
      9 C9          4.9942   -2.4077    0.5355 C.ar      1 <0>         0.0271
     10 C10         4.8761   -3.7912    0.5065 C.ar      1 <0>        -0.1360
     11 C11         6.0115   -4.5794    0.2780 C.ar      1 <0>         0.0136
     12 C12         5.9199   -5.9849    0.2431 C.ar      1 <0>        -0.0817
     13 C13         7.0305   -6.7320    0.0201 C.ar      1 <0>        -0.0906
     14 C14         8.2815   -6.1208   -0.1784 C.ar      1 <0>        -0.1682
     15 C15         8.4029   -4.7402   -0.1497 C.ar      1 <0>        -0.0116
     16 C16         7.2690   -3.9524    0.0789 C.ar      1 <0>        -0.0881
     17 C17         7.3607   -2.5415    0.1134 C.ar      1 <0>         0.2012
     18 C18         6.2408   -1.7922    0.3319 C.ar      1 <0>        -0.1124
     19 N1          8.5911   -1.9171   -0.0811 N.pl3     1 <0>        -0.6410
     20 C19         8.6568   -0.7130   -0.7632 C.ar      1 <0>         0.5451
     21 N2          7.5582   -0.2241   -1.3194 N.ar      1 <0>        -0.5532
     22 C20         7.5864    0.9230   -1.9773 C.ar      1 <0>         0.1889
     23 C21         8.7835    1.6141   -2.0804 C.ar      1 <0>        -0.2637
     24 C22         9.9137    1.0741   -1.4866 C.ar      1 <0>         0.1923
     25 N3          9.8156   -0.0751   -0.8390 N.ar      1 <0>        -0.5571
     26 C23         9.4759   -6.9569   -0.4189 C.cat     1 <0>         0.6022
     27 N4          9.5522   -8.1775    0.1100 N.pl3     1 <0>        -0.7593
     28 N5         10.4766   -6.4901   -1.1648 N.pl3     1 <0>        -0.7642
     29 H1         -0.4043    2.7586    1.6707 H         1 <0>         0.1264
     30 H2          1.7799    3.8307    1.3098 H         1 <0>         0.1272
     31 H3          3.7791    2.4561    0.9086 H         1 <0>         0.1244
     32 H4          1.3789   -1.0878    1.2243 H         1 <0>         0.1261
     33 H5         -0.6062    0.3075    1.6243 H         1 <0>         0.1271
     34 H6          4.8679    0.2288    0.6424 H         1 <0>         0.1240
     35 H7          2.8405   -2.0463    0.9327 H         1 <0>         0.1334
     36 H8          3.9139   -4.2571    0.6598 H         1 <0>         0.1444
     37 H9          4.9658   -6.4677    0.3943 H         1 <0>         0.1504
     38 H10         6.9528   -7.8090   -0.0050 H         1 <0>         0.1370
     39 H11         9.3657   -4.2757   -0.3031 H         1 <0>         0.1342
     40 H12         6.3144   -0.7149    0.3528 H         1 <0>         0.1477
     41 H13         9.4017   -2.3255    0.2611 H         1 <0>         0.4222
     42 H14         6.6876    1.3163   -2.4289 H         1 <0>         0.1757
     43 H15         8.8347    2.5528   -2.6120 H         1 <0>         0.1543
     44 H16        10.8619    1.5874   -1.5485 H         1 <0>         0.1765
     45 H17         8.8238   -8.5173    0.6529 H         1 <0>         0.4466
     46 H18        10.4210   -5.6016   -1.5498 H         1 <0>         0.4441
     47 H19        11.2607   -7.0390   -1.3227 H         1 <0>         0.4323
     48 H20        10.3363   -8.7263   -0.0479 H         1 <0>         0.4319
@<TRIPOS>BOND
     1    1    6 ar
     2    1    2 ar
     3    1   29 1
     4    2    3 ar
     5    2   30 1
     6    3    4 ar
     7    3   31 1
     8    4    5 ar
     9    4    7 1
    10    5    6 ar
    11    5   32 1
    12    6   33 1
    13    7    8 2
    14    7   34 1
    15    8    9 1
    16    8   35 1
    17    9   18 ar
    18    9   10 ar
    19   10   11 ar
    20   10   36 1
    21   11   16 ar
    22   11   12 ar
    23   12   13 ar
    24   12   37 1
    25   13   14 ar
    26   13   38 1
    27   14   15 ar
    28   14   26 1
    29   15   16 ar
    30   15   39 1
    31   16   17 ar
    32   17   18 ar
    33   17   19 1
    34   18   40 1
    35   19   20 1
    36   19   41 1
    37   20   25 ar
    38   20   21 ar
    39   21   22 ar
    40   22   23 ar
    41   22   42 1
    42   23   24 ar
    43   23   43 1
    44   24   25 ar
    45   24   44 1
    46   26   27 2
    47   26   28 1
    48   27   45 1
    49   27   48 1
    50   28   46 1
    51   28   47 1
@<TRIPOS>MOLECULE
CHEMBL393591
   59    61     0     0     0
SMALL
USER_CHARGES

@<TRIPOS>ATOM
      1 C1         -1.7778    0.6028   -2.9212 C.3       1 <0>         0.0477
      2 O1         -0.7136   -0.1509   -2.3367 O.3       1 <0>        -0.3554
      3 C2          0.2608   -0.5751   -3.1633 C.2       1 <0>         0.6461
      4 O2          0.2091   -0.3125   -4.3485 O.2       1 <0>        -0.5592
      5 N1          1.2936   -1.2909   -2.6760 N.am      1 <0>        -0.6948
      6 C3          2.2934   -1.8493   -3.5896 C.3       1 <0>        -0.4220
      7 C4          2.5630   -3.3093   -3.2200 C.3       1 <0>        -0.0903
      8 C5          3.5915   -3.8838   -4.1598 C.ar      1 <0>        -0.1031
      9 C6          3.1892   -4.4910   -5.3352 C.ar      1 <0>        -0.0677
     10 C7          4.1293   -5.0185   -6.1986 C.ar      1 <0>        -0.1113
     11 C8          5.4798   -4.9385   -5.8853 C.ar      1 <0>         0.1090
     12 C9          5.8806   -4.3280   -4.7041 C.ar      1 <0>        -0.1460
     13 C10         4.9359   -3.7975   -3.8476 C.ar      1 <0>        -0.0711
     14 N2          6.4348   -5.4723   -6.7577 N.pl3     1 <0>        -0.6319
     15 C11         7.5459   -6.0980   -6.2572 C.cat     1 <0>         0.7448
     16 N3          8.5168   -6.4905   -7.0804 N.pl3     1 <0>        -0.7872
     17 N4          7.6554   -6.3139   -4.9474 N.pl3     1 <0>        -0.7933
     18 P1          3.8398   -0.8932   -3.4562 P.3       1 <0>         2.3015
     19 O3          4.4645   -1.1468   -2.1387 O.2       1 <0>        -0.9713
     20 O4          4.8514   -1.3428   -4.6252 O.3       1 <0>        -0.6108
     21 C12         5.9912   -0.6050   -4.6840 C.ar      1 <0>         0.0718
     22 C13         6.0361    0.5435   -5.4610 C.ar      1 <0>        -0.1340
     23 C14         7.1957    1.2920   -5.5187 C.ar      1 <0>        -0.0973
     24 C15         8.3111    0.8972   -4.8033 C.ar      1 <0>        -0.1106
     25 C16         8.2690   -0.2472   -4.0286 C.ar      1 <0>        -0.1033
     26 C17         7.1099   -0.9959   -3.9627 C.ar      1 <0>        -0.1208
     27 O5          3.5144    0.6768   -3.6025 O.3       1 <0>        -0.6355
     28 C18         3.4751    1.3457   -2.4202 C.ar      1 <0>         0.1011
     29 C19         2.2580    1.5942   -1.8026 C.ar      1 <0>        -0.1396
     30 C20         2.2208    2.2739   -0.6005 C.ar      1 <0>        -0.0964
     31 C21         3.3952    2.7069   -0.0132 C.ar      1 <0>        -0.1124
     32 C22         4.6095    2.4609   -0.6269 C.ar      1 <0>        -0.0933
     33 C23         4.6525    1.7762   -1.8260 C.ar      1 <0>        -0.1125
     34 H1         -1.3738    1.5031   -3.3840 H         1 <0>         0.0671
     35 H2         -2.2781   -0.0016   -3.6779 H         1 <0>         0.0653
     36 H3         -2.4932    0.8816   -2.1475 H         1 <0>         0.1139
     37 H4          1.3749   -1.4363   -1.7204 H         1 <0>         0.4226
     38 H5          1.9207   -1.7964   -4.6126 H         1 <0>         0.1327
     39 H6          2.9358   -3.3622   -2.1971 H         1 <0>         0.1120
     40 H7          1.6384   -3.8810   -3.2998 H         1 <0>         0.1026
     41 H8          2.1387   -4.5532   -5.5781 H         1 <0>         0.1424
     42 H9          3.8145   -5.4930   -7.1163 H         1 <0>         0.1431
     43 H10         6.9301   -4.2646   -4.4574 H         1 <0>         0.1410
     44 H11         5.2472   -3.3184   -2.9311 H         1 <0>         0.1579
     45 H12         6.3100   -5.3993   -7.7169 H         1 <0>         0.4439
     46 H13         9.3035   -6.9335   -6.7260 H         1 <0>         0.4439
     47 H14         6.9012   -6.1405   -4.3626 H         1 <0>         0.4436
     48 H15         8.4893   -6.6445   -4.5784 H         1 <0>         0.4410
     49 H16         5.1653    0.8519   -6.0205 H         1 <0>         0.1352
     50 H17         7.2312    2.1861   -6.1234 H         1 <0>         0.1378
     51 H18         9.2169    1.4836   -4.8501 H         1 <0>         0.1350
     52 H19         9.1417   -0.5537   -3.4710 H         1 <0>         0.1368
     53 H20         7.0761   -1.8873   -3.3539 H         1 <0>         0.1367
     54 H21         1.3403    1.2568   -2.2613 H         1 <0>         0.1186
     55 H22         1.2735    2.4676   -0.1193 H         1 <0>         0.1350
     56 H23         3.3640    3.2385    0.9264 H         1 <0>         0.1343
     57 H24         5.5255    2.8005   -0.1663 H         1 <0>         0.1364
     58 H25         5.6016    1.5804   -2.3028 H         1 <0>         0.1284
     59 H26         8.4370   -6.3332   -8.0342 H         1 <0>         0.4422
@<TRIPOS>BOND
     1    1    2 1
     2    1   34 1
     3    1   35 1
     4    1   36 1
     5    2    3 1
     6    3    4 2
     7    3    5 am
     8    5    6 1
     9    5   37 1
    10    6    7 1
    11    6   18 1
    12    6   38 1
    13    7    8 1
    14    7   39 1
    15    7   40 1
    16    8   13 ar
    17    8    9 ar
    18    9   10 ar
    19    9   41 1
    20   10   11 ar
    21   10   42 1
    22   11   12 ar
    23   11   14 1
    24   12   13 ar
    25   12   43 1
    26   13   44 1
    27   14   15 1
    28   14   45 1
    29   15   16 2
    30   15   17 1
    31   16   46 1
    32   16   59 1
    33   17   47 1
    34   17   48 1
    35   18   19 2
    36   18   20 1
    37   18   27 1
    38   20   21 1
    39   21   26 ar
    40   21   22 ar
    41   22   23 ar
    42   22   49 1
    43   23   24 ar
    44   23   50 1
    45   24   25 ar
    46   24   51 1
    47   25   26 ar
    48   25   52 1
    49   26   53 1
    50   27   28 1
    51   28   33 ar
    52   28   29 ar
    53   29   30 ar
    54   29   54 1
    55   30   31 ar
    56   30   55 1
    57   31   32 ar
    58   31   56 1
    59   32   33 ar
    60   32   57 1
    61   33   58 1
@<TRIPOS>MOLECULE
CHEMBL393591__1
   59    61     0     0     0
SMALL
USER_CHARGES

@<TRIPOS>ATOM
      1 C1          1.4850   -5.4814    2.7839 C.3       1 <0>         0.0463
      2 O1          0.7386   -4.7665    1.7971 O.3       1 <0>        -0.3534
      3 C2          1.3366   -4.5610    0.6085 C.2       1 <0>         0.6480
      4 O2          2.4615   -4.9774    0.4143 O.2       1 <0>        -0.5632
      5 N1          0.6875   -3.8936   -0.3660 N.am      1 <0>        -0.6938
      6 C3          1.3675   -3.5981   -1.6296 C.3       1 <0>        -0.4242
      7 C4          0.4251   -3.8958   -2.7976 C.3       1 <0>        -0.0894
      8 C5          1.1245   -3.5918   -4.0974 C.ar      1 <0>        -0.1022
      9 C6          1.0404   -2.3255   -4.6465 C.ar      1 <0>        -0.0714
     10 C7          1.6802   -2.0437   -5.8376 C.ar      1 <0>        -0.0967
     11 C8          2.4086   -3.0338   -6.4839 C.ar      1 <0>         0.1077
     12 C9          2.4911   -4.3045   -5.9299 C.ar      1 <0>        -0.1584
     13 C10         1.8537   -4.5783   -4.7356 C.ar      1 <0>        -0.0678
     14 N2          3.0577   -2.7517   -7.6910 N.pl3     1 <0>        -0.6315
     15 C11         3.0867   -3.6900   -8.6886 C.cat     1 <0>         0.7446
     16 N3          3.8078   -3.4721   -9.7871 N.pl3     1 <0>        -0.7873
     17 N4          2.3938   -4.8204   -8.5601 N.pl3     1 <0>        -0.7938
     18 P1          1.8440   -1.8389   -1.6664 P.3       1 <0>         2.2998
     19 O3          0.6279   -1.0001   -1.7556 O.2       1 <0>        -0.9708
     20 O4          2.6507   -1.4732   -0.3219 O.3       1 <0>        -0.6340
     21 C12         1.8637   -1.0191    0.6887 C.ar      1 <0>         0.0888
     22 C13         1.3391    0.2642    0.6380 C.ar      1 <0>        -0.1065
     23 C14         0.5390    0.7232    1.6664 C.ar      1 <0>        -0.0958
     24 C15         0.2612   -0.0951    2.7457 C.ar      1 <0>        -0.1120
     25 C16         0.7832   -1.3743    2.7989 C.ar      1 <0>        -0.0976
     26 C17         1.5788   -1.8402    1.7701 C.ar      1 <0>        -0.1370
     27 O5          2.7810   -1.5633   -2.9463 O.3       1 <0>        -0.6111
     28 C18         3.1776   -0.2697   -3.0727 C.ar      1 <0>         0.0705
     29 C19         2.3538    0.6512   -3.7036 C.ar      1 <0>        -0.1210
     30 C20         2.7590    1.9657   -3.8304 C.ar      1 <0>        -0.1017
     31 C21         3.9847    2.3639   -3.3296 C.ar      1 <0>        -0.1098
     32 C22         4.8079    1.4480   -2.7009 C.ar      1 <0>        -0.0996
     33 C23         4.4045    0.1337   -2.5660 C.ar      1 <0>        -0.1310
     34 H1          1.7318   -6.4732    2.4049 H         1 <0>         0.0655
     35 H2          2.4036   -4.9392    3.0081 H         1 <0>         0.0662
     36 H3          0.8890   -5.5773    3.6915 H         1 <0>         0.1143
     37 H4         -0.2298   -3.6088   -0.2308 H         1 <0>         0.4230
     38 H5          2.2598   -4.2181   -1.7157 H         1 <0>         0.1324
     39 H6          0.1401   -4.9476   -2.7756 H         1 <0>         0.1022
     40 H7         -0.4673   -3.2758   -2.7116 H         1 <0>         0.1122
     41 H8          0.4734   -1.5560   -4.1435 H         1 <0>         0.1570
     42 H9          1.6139   -1.0546   -6.2661 H         1 <0>         0.1457
     43 H10         3.0565   -5.0768   -6.4303 H         1 <0>         0.1384
     44 H11         1.9214   -5.5651   -4.3018 H         1 <0>         0.1418
     45 H12         3.4870   -1.8918   -7.8214 H         1 <0>         0.4446
     46 H13         3.8283   -4.1365  -10.4935 H         1 <0>         0.4437
     47 H14         1.7831   -4.9328   -7.8150 H         1 <0>         0.4431
     48 H15         2.5001   -5.5311   -9.2117 H         1 <0>         0.4404
     49 H16         1.5563    0.9039   -0.2046 H         1 <0>         0.1342
     50 H17         0.1303    1.7221    1.6273 H         1 <0>         0.1370
     51 H18        -0.3642    0.2657    3.5489 H         1 <0>         0.1338
     52 H19         0.5651   -2.0114    3.6432 H         1 <0>         0.1340
     53 H20         1.9827   -2.8411    1.8099 H         1 <0>         0.1200
     54 H21         1.3965    0.3405   -4.0955 H         1 <0>         0.1396
     55 H22         2.1180    2.6829   -4.3214 H         1 <0>         0.1379
     56 H23         4.2999    3.3920   -3.4301 H         1 <0>         0.1346
     57 H24         5.7650    1.7614   -2.3109 H         1 <0>         0.1368
     58 H25         5.0459   -0.5804   -2.0709 H         1 <0>         0.1342
     59 H26         4.3123   -2.6489   -9.8807 H         1 <0>         0.4426
@<TRIPOS>BOND
     1    1    2 1
     2    1   34 1
     3    1   35 1
     4    1   36 1
     5    2    3 1
     6    3    4 2
     7    3    5 am
     8    5    6 1
     9    5   37 1
    10    6    7 1
    11    6   18 1
    12    6   38 1
    13    7    8 1
    14    7   39 1
    15    7   40 1
    16    8   13 ar
    17    8    9 ar
    18    9   10 ar
    19    9   41 1
    20   10   11 ar
    21   10   42 1
    22   11   12 ar
    23   11   14 1
    24   12   13 ar
    25   12   43 1
    26   13   44 1
    27   14   15 1
    28   14   45 1
    29   15   16 2
    30   15   17 1
    31   16   46 1
    32   16   59 1
    33   17   47 1
    34   17   48 1
    35   18   19 2
    36   18   20 1
    37   18   27 1
    38   20   21 1
    39   21   26 ar
    40   21   22 ar
    41   22   23 ar
    42   22   49 1
    43   23   24 ar
    44   23   50 1
    45   24   25 ar
    46   24   51 1
    47   25   26 ar
    48   25   52 1
    49   26   53 1
    50   27   28 1
    51   28   33 ar
    52   28   29 ar
    53   29   30 ar
    54   29   54 1
    55   30   31 ar
    56   30   55 1
    57   31   32 ar
    58   31   56 1
    59   32   33 ar
    60   32   57 1
    61   33   58 1
@<TRIPOS>MOLECULE
CHEMBL597571
   39    41     0     0     0
SMALL
USER_CHARGES

@<TRIPOS>ATOM
      1 C1         -0.2143    1.1916    0.2375 C.ar      1 <0>        -0.1072
      2 C2          0.9095    1.9720    0.4343 C.ar      1 <0>        -0.1185
      3 C3          2.1650    1.3939    0.4121 C.ar      1 <0>        -0.1074
      4 C4          2.2966    0.0353    0.1935 C.ar      1 <0>        -0.0953
      5 C5          1.1726   -0.7453   -0.0024 C.ar      1 <0>        -0.0732
      6 C6         -0.0827   -0.1669    0.0184 C.ar      1 <0>        -0.1255
      7 C7          3.6653   -0.5947    0.1683 C.3       1 <0>         0.1300
      8 C8          4.1588   -0.6846   -1.2771 C.3       1 <0>         0.0535
      9 O1          3.1950   -1.3840   -2.0670 O.3       1 <0>        -0.5574
     10 O2          3.5962   -1.9067    0.7305 O.3       1 <0>        -0.2865
     11 C9          4.7406   -2.4122    1.2583 C.ar      1 <0>         0.2223
     12 C10         5.9165   -1.7123    1.1326 C.ar      1 <0>        -0.2353
     13 C11         7.1060   -2.1966    1.6588 C.ar      1 <0>         0.0075
     14 C12         7.1147   -3.4065    2.3242 C.ar      1 <0>        -0.1304
     15 C13         5.9443   -4.1216    2.4600 C.ar      1 <0>        -0.0367
     16 C14         4.7114   -3.6596    1.9424 C.ar      1 <0>        -0.1635
     17 C15         3.6089   -4.5019    2.1684 C.2       1 <0>         0.0387
     18 C16         3.7731   -5.6670    2.8484 C.2       1 <0>        -0.2913
     19 S1          5.5192   -5.6706    3.2164 S.3       1 <0>         0.1366
     20 C17         2.7624   -6.6795    3.1894 C.cat     1 <0>         0.6509
     21 N1          3.1155   -7.7722    3.8703 N.pl3     1 <0>        -0.7621
     22 N2          1.4919   -6.5059    2.8180 N.pl3     1 <0>        -0.7603
     23 H1         -1.1955    1.6425    0.2593 H         1 <0>         0.1262
     24 H2          0.8067    3.0335    0.6051 H         1 <0>         0.1285
     25 H3          3.0431    2.0038    0.5652 H         1 <0>         0.1241
     26 H4          1.2755   -1.8066   -0.1736 H         1 <0>         0.1248
     27 H5         -0.9608   -0.7767   -0.1351 H         1 <0>         0.1243
     28 H6          4.3564    0.0143    0.7510 H         1 <0>         0.1033
     29 H7          4.2964    0.3199   -1.6772 H         1 <0>         0.0708
     30 H8          5.1081   -1.2197   -1.3044 H         1 <0>         0.0581
     31 H9          3.4426   -1.4787   -2.9969 H         1 <0>         0.3862
     32 H10         5.9151   -0.7655    0.6131 H         1 <0>         0.1470
     33 H11         8.0193   -1.6308    1.5481 H         1 <0>         0.1547
     34 H12         8.0356   -3.7913    2.7366 H         1 <0>         0.1490
     35 H13         2.6319   -4.2231    1.8022 H         1 <0>         0.1516
     36 H14         4.0386   -7.8983    4.1401 H         1 <0>         0.4445
     37 H15         1.2353   -5.7120    2.3232 H         1 <0>         0.4451
     38 H16         0.8253   -7.1737    3.0429 H         1 <0>         0.4365
     39 H17         2.4489   -8.4400    4.0952 H         1 <0>         0.4365
@<TRIPOS>BOND
     1    1    6 ar
     2    1    2 ar
     3    1   23 1
     4    2    3 ar
     5    2   24 1
     6    3    4 ar
     7    3   25 1
     8    4    5 ar
     9    4    7 1
    10    5    6 ar
    11    5   26 1
    12    6   27 1
    13    7    8 1
    14    7   10 1
    15    7   28 1
    16    8    9 1
    17    8   29 1
    18    8   30 1
    19    9   31 1
    20   10   11 1
    21   11   16 ar
    22   11   12 ar
    23   12   13 ar
    24   12   32 1
    25   13   14 ar
    26   13   33 1
    27   14   15 ar
    28   14   34 1
    29   15   19 1
    30   15   16 ar
    31   16   17 1
    32   17   18 2
    33   17   35 1
    34   18   19 1
    35   18   20 1
    36   20   21 2
    37   20   22 1
    38   21   36 1
    39   21   39 1
    40   22   37 1
    41   22   38 1
@<TRIPOS>MOLECULE
CHEMBL597571__1
   39    41     0     0     0
SMALL
USER_CHARGES

@<TRIPOS>ATOM
      1 C1         -0.1815    0.9429    0.5840 C.ar      1 <0>        -0.1061
      2 C2          0.9056    1.7807    0.4184 C.ar      1 <0>        -0.1198
      3 C3          2.1648    1.2473    0.2167 C.ar      1 <0>        -0.1063
      4 C4          2.3371   -0.1238    0.1811 C.ar      1 <0>        -0.0977
      5 C5          1.2502   -0.9616    0.3477 C.ar      1 <0>        -0.0703
      6 C6         -0.0093   -0.4282    0.5480 C.ar      1 <0>        -0.1268
      7 C7          3.7097   -0.7053   -0.0398 C.3       1 <0>         0.1301
      8 C8          4.3008   -1.1417    1.3023 C.3       1 <0>         0.0533
      9 O1          3.3986   -2.0407    1.9503 O.3       1 <0>        -0.5577
     10 O2          3.6140   -1.8361   -0.9083 O.3       1 <0>        -0.2863
     11 C9          4.7256   -2.1671   -1.6142 C.ar      1 <0>         0.2224
     12 C10         5.9018   -1.4931   -1.3891 C.ar      1 <0>        -0.2356
     13 C11         7.0585   -1.8029   -2.0907 C.ar      1 <0>         0.0075
     14 C12         7.0337   -2.8089   -3.0362 C.ar      1 <0>        -0.1306
     15 C13         5.8626   -3.4956   -3.2746 C.ar      1 <0>        -0.0367
     16 C14         4.6648   -3.2130   -2.5771 C.ar      1 <0>        -0.1636
     17 C15         3.5591   -4.0052   -2.9318 C.2       1 <0>         0.0388
     18 C16         3.6903   -4.9664   -3.8835 C.2       1 <0>        -0.2914
     19 S1          5.4018   -4.8179   -4.3662 S.3       1 <0>         0.1364
     20 C17         2.6707   -5.8944   -4.3955 C.cat     1 <0>         0.6509
     21 N1          2.9894   -6.7799   -5.3425 N.pl3     1 <0>        -0.7622
     22 N2          1.4265   -5.8514   -3.9134 N.pl3     1 <0>        -0.7603
     23 H1         -1.1646    1.3596    0.7461 H         1 <0>         0.1262
     24 H2          0.7710    2.8519    0.4462 H         1 <0>         0.1284
     25 H3          3.0140    1.9018    0.0866 H         1 <0>         0.1240
     26 H4          1.3847   -2.0328    0.3195 H         1 <0>         0.1263
     27 H5         -0.8585   -1.0827    0.6777 H         1 <0>         0.1245
     28 H6          4.3546    0.0475   -0.4932 H         1 <0>         0.1028
     29 H7          5.2542   -1.6424    1.1339 H         1 <0>         0.0581
     30 H8          4.4565   -0.2662    1.9326 H         1 <0>         0.0708
     31 H9          3.7094   -2.3589    2.8089 H         1 <0>         0.3862
     32 H10         5.9266   -0.7053   -0.6506 H         1 <0>         0.1469
     33 H11         7.9723   -1.2602   -1.8987 H         1 <0>         0.1546
     34 H12         7.9288   -3.0567   -3.5873 H         1 <0>         0.1489
     35 H13         2.6060   -3.8503   -2.4480 H         1 <0>         0.1516
     36 H14         3.8934   -6.8112   -5.6928 H         1 <0>         0.4445
     37 H15         1.1949   -5.2080   -3.2254 H         1 <0>         0.4451
     38 H16         0.7541   -6.4635   -4.2512 H         1 <0>         0.4365
     39 H17         2.3169   -7.3920   -5.6802 H         1 <0>         0.4365
@<TRIPOS>BOND
     1    1    6 ar
     2    1    2 ar
     3    1   23 1
     4    2    3 ar
     5    2   24 1
     6    3    4 ar
     7    3   25 1
     8    4    5 ar
     9    4    7 1
    10    5    6 ar
    11    5   26 1
    12    6   27 1
    13    7    8 1
    14    7   10 1
    15    7   28 1
    16    8    9 1
    17    8   29 1
    18    8   30 1
    19    9   31 1
    20   10   11 1
    21   11   16 ar
    22   11   12 ar
    23   12   13 ar
    24   12   32 1
    25   13   14 ar
    26   13   33 1
    27   14   15 ar
    28   14   34 1
    29   15   19 1
    30   15   16 ar
    31   16   17 1
    32   17   18 2
    33   17   35 1
    34   18   19 1
    35   18   20 1
    36   20   21 2
    37   20   22 1
    38   21   36 1
    39   21   39 1
    40   22   37 1
    41   22   38 1
@<TRIPOS>MOLECULE
CHEMBL238491
   69    72     0     0     0
SMALL
USER_CHARGES

@<TRIPOS>ATOM
      1 C1          0.4531    0.4108   -0.3330 C.ar      1 <0>        -0.1030
      2 C2          1.5923    1.1307   -0.0249 C.ar      1 <0>        -0.1152
      3 C3          2.8157    0.4912    0.0473 C.ar      1 <0>        -0.1042
      4 C4          2.8998   -0.8684   -0.1882 C.ar      1 <0>        -0.1023
      5 C5          1.7605   -1.5885   -0.4955 C.ar      1 <0>        -0.1035
      6 C6          0.5374   -0.9487   -0.5690 C.ar      1 <0>        -0.1136
      7 C7          4.2337   -1.5654   -0.1105 C.3       1 <0>        -0.5829
      8 S1          4.5131   -2.1491    1.5842 S.o2      1 <0>         2.5794
      9 O1          4.6857   -1.0437    2.4603 O.2       1 <0>        -0.9090
     10 O2          3.5975   -3.1885    1.9010 O.2       1 <0>        -0.9293
     11 N1          5.9939   -2.8891    1.5407 N.pl3     1 <0>        -1.0999
     12 C8          7.1977   -2.1028    1.2599 C.3       1 <0>        -0.4393
     13 C9          8.2310   -2.9856    0.5570 C.3       1 <0>        -0.0870
     14 C10         9.4098   -2.1445    0.1401 C.ar      1 <0>        -0.1067
     15 C11         9.3691   -1.4409   -1.0497 C.ar      1 <0>        -0.0825
     16 C12        10.4478   -0.6692   -1.4346 C.ar      1 <0>        -0.1088
     17 C13        11.5743   -0.6002   -0.6253 C.ar      1 <0>         0.1065
     18 C14        11.6121   -1.3079    0.5689 C.ar      1 <0>        -0.1402
     19 C15        10.5278   -2.0734    0.9509 C.ar      1 <0>        -0.0665
     20 N2         12.6691    0.1805   -1.0126 N.pl3     1 <0>        -0.6336
     21 C16        13.9438   -0.2734   -0.7989 C.cat     1 <0>         0.7452
     22 N3         14.9838    0.5221   -1.0435 N.pl3     1 <0>        -0.7868
     23 N4         14.1432   -1.5102   -0.3464 N.pl3     1 <0>        -0.7916
     24 P1          7.8950   -1.4793    2.8246 P.3       1 <0>         2.2853
     25 O3          8.5060   -2.6000    3.5736 O.2       1 <0>        -0.9558
     26 O4          9.0182   -0.3703    2.5073 O.3       1 <0>        -0.6010
     27 C17         8.5188    0.8049    2.0421 C.ar      1 <0>         0.0713
     28 C18         8.0034    0.8804    0.7563 C.ar      1 <0>        -0.1875
     29 C19         7.4959    2.0761    0.2859 C.ar      1 <0>        -0.0902
     30 C20         7.5016    3.1970    1.0953 C.ar      1 <0>        -0.1113
     31 C21         8.0151    3.1245    2.3771 C.ar      1 <0>        -0.0874
     32 C22         8.5182    1.9297    2.8543 C.ar      1 <0>        -0.1210
     33 O5          6.7230   -0.8185    3.7088 O.3       1 <0>        -0.5919
     34 C23         7.1043   -0.4819    4.9690 C.ar      1 <0>         0.0776
     35 C24         7.4288   -1.4723    5.8847 C.ar      1 <0>        -0.1312
     36 C25         7.8166   -1.1275    7.1650 C.ar      1 <0>        -0.0980
     37 C26         7.8809    0.2034    7.5343 C.ar      1 <0>        -0.1164
     38 C27         7.5575    1.1924    6.6237 C.ar      1 <0>        -0.1071
     39 C28         7.1752    0.8530    5.3403 C.ar      1 <0>        -0.1346
     40 H1         -0.5033    0.9096   -0.3850 H         1 <0>         0.1321
     41 H2          1.5265    2.1929    0.1591 H         1 <0>         0.1320
     42 H3          3.7058    1.0537    0.2873 H         1 <0>         0.1273
     43 H4          1.8263   -2.6506   -0.6798 H         1 <0>         0.1305
     44 H5         -0.3527   -1.5112   -0.8095 H         1 <0>         0.1336
     45 H6          4.2399   -2.4152   -0.7931 H         1 <0>         0.1438
     46 H7          5.0243   -0.8691   -0.3899 H         1 <0>         0.1316
     47 H8          6.0642   -3.8431    1.7012 H         1 <0>         0.4318
     48 H9          6.9404   -1.2618    0.6161 H         1 <0>         0.1067
     49 H10         8.5654   -3.7671    1.2393 H         1 <0>         0.1179
     50 H11         7.7800   -3.4414   -0.3245 H         1 <0>         0.1079
     51 H12         8.4929   -1.4953   -1.6787 H         1 <0>         0.1426
     52 H13        10.4156   -0.1202   -2.3641 H         1 <0>         0.1436
     53 H14        12.4868   -1.2566    1.2002 H         1 <0>         0.1427
     54 H15        10.5547   -2.6203    1.8818 H         1 <0>         0.1586
     55 H16        12.5254    1.0430   -1.4325 H         1 <0>         0.4437
     56 H17        15.8864    0.2007   -0.8921 H         1 <0>         0.4442
     57 H18        13.3960   -2.1234   -0.2652 H         1 <0>         0.4433
     58 H19        15.0357   -1.7978   -0.0981 H         1 <0>         0.4416
     59 H20         7.9993    0.0053    0.1235 H         1 <0>         0.1265
     60 H21         7.0945    2.1353   -0.7150 H         1 <0>         0.1359
     61 H22         7.1047    4.1309    0.7257 H         1 <0>         0.1377
     62 H23         8.0189    4.0016    3.0072 H         1 <0>         0.1425
     63 H24         8.9151    1.8724    3.8571 H         1 <0>         0.1449
     64 H25         7.3781   -2.5120    5.5969 H         1 <0>         0.1510
     65 H26         8.0693   -1.8981    7.8781 H         1 <0>         0.1368
     66 H27         8.1839    0.4709    8.5358 H         1 <0>         0.1322
     67 H28         7.6082    2.2312    6.9146 H         1 <0>         0.1342
     68 H29         6.9269    1.6260    4.6281 H         1 <0>         0.1341
     69 H30        14.8385    1.4227   -1.3730 H         1 <0>         0.4423
@<TRIPOS>BOND
     1    1    6 ar
     2    1    2 ar
     3    1   40 1
     4    2    3 ar
     5    2   41 1
     6    3    4 ar
     7    3   42 1
     8    4    5 ar
     9    4    7 1
    10    5    6 ar
    11    5   43 1
    12    6   44 1
    13    7    8 1
    14    7   45 1
    15    7   46 1
    16    8    9 2
    17    8   10 2
    18    8   11 1
    19   11   12 1
    20   11   47 1
    21   12   13 1
    22   12   24 1
    23   12   48 1
    24   13   14 1
    25   13   49 1
    26   13   50 1
    27   14   19 ar
    28   14   15 ar
    29   15   16 ar
    30   15   51 1
    31   16   17 ar
    32   16   52 1
    33   17   18 ar
    34   17   20 1
    35   18   19 ar
    36   18   53 1
    37   19   54 1
    38   20   21 1
    39   20   55 1
    40   21   22 2
    41   21   23 1
    42   22   56 1
    43   22   69 1
    44   23   57 1
    45   23   58 1
    46   24   25 2
    47   24   26 1
    48   24   33 1
    49   26   27 1
    50   27   32 ar
    51   27   28 ar
    52   28   29 ar
    53   28   59 1
    54   29   30 ar
    55   29   60 1
    56   30   31 ar
    57   30   61 1
    58   31   32 ar
    59   31   62 1
    60   32   63 1
    61   33   34 1
    62   34   39 ar
    63   34   35 ar
    64   35   36 ar
    65   35   64 1
    66   36   37 ar
    67   36   65 1
    68   37   38 ar
    69   37   66 1
    70   38   39 ar
    71   38   67 1
    72   39   68 1
@<TRIPOS>MOLECULE
CHEMBL238491__1
   69    72     0     0     0
SMALL
USER_CHARGES

@<TRIPOS>ATOM
      1 C1         -2.4322    5.3832   -3.7402 C.ar      1 <0>        -0.1022
      2 C2         -2.7138    5.0975   -2.4173 C.ar      1 <0>        -0.1156
      3 C3         -2.0725    4.0487   -1.7851 C.ar      1 <0>        -0.1093
      4 C4         -1.1500    3.2853   -2.4759 C.ar      1 <0>        -0.0951
      5 C5         -0.8691    3.5705   -3.7990 C.ar      1 <0>        -0.0964
      6 C6         -1.5093    4.6202   -4.4308 C.ar      1 <0>        -0.1124
      7 C7         -0.4503    2.1426   -1.7864 C.3       1 <0>        -0.5945
      8 S1         -1.4168    0.6228   -2.0027 S.o2      1 <0>         2.5950
      9 O1         -2.5617    0.6470   -1.1613 O.2       1 <0>        -0.9418
     10 O2         -1.5394    0.3132   -3.3841 O.2       1 <0>        -0.9280
     11 N1         -0.4624   -0.5803   -1.3831 N.pl3     1 <0>        -1.1022
     12 C8         -0.0594   -0.5438    0.0249 C.3       1 <0>        -0.4351
     13 C9         -0.6294   -1.7644    0.7503 C.3       1 <0>        -0.0931
     14 C10        -0.8074   -1.4424    2.2117 C.ar      1 <0>        -0.0785
     15 C11         0.2991   -1.1966    3.0038 C.ar      1 <0>        -0.0903
     16 C12         0.1393   -0.9013    4.3435 C.ar      1 <0>        -0.1017
     17 C13        -1.1343   -0.8512    4.8949 C.ar      1 <0>         0.1005
     18 C14        -2.2434   -1.0986    4.0967 C.ar      1 <0>        -0.1624
     19 C15        -2.0772   -1.3878    2.7565 C.ar      1 <0>        -0.0698
     20 N2         -1.2995   -0.5527    6.2519 N.pl3     1 <0>        -0.6307
     21 C16        -2.3001   -1.1541    6.9686 C.cat     1 <0>         0.7442
     22 N3         -2.5264   -0.7913    8.2301 N.pl3     1 <0>        -0.7875
     23 N4         -3.0469   -2.1016    6.4039 N.pl3     1 <0>        -0.7942
     24 P1          1.7600   -0.5650    0.1370 P.3       1 <0>         2.2742
     25 O3          2.2114   -1.9031    0.5802 O.2       1 <0>        -0.9472
     26 O4          2.3906   -0.2371   -1.3076 O.3       1 <0>        -0.6272
     27 C17         3.4574   -1.0132   -1.6341 C.ar      1 <0>         0.0893
     28 C18         4.7397   -0.4854   -1.5909 C.ar      1 <0>        -0.1409
     29 C19         5.8224   -1.2765   -1.9228 C.ar      1 <0>        -0.0997
     30 C20         5.6290   -2.5930   -2.2984 C.ar      1 <0>        -0.1106
     31 C21         4.3519   -3.1212   -2.3427 C.ar      1 <0>        -0.0935
     32 C22         3.2664   -2.3361   -2.0058 C.ar      1 <0>        -0.1125
     33 O5          2.2452    0.5439    1.1987 O.3       1 <0>        -0.5993
     34 C23         2.4818    1.7656    0.6526 C.ar      1 <0>         0.0595
     35 C24         3.7364    2.0680    0.1434 C.ar      1 <0>        -0.1322
     36 C25         3.9742    3.3105   -0.4116 C.ar      1 <0>        -0.0855
     37 C26         2.9632    4.2526   -0.4594 C.ar      1 <0>        -0.1052
     38 C27         1.7122    3.9539    0.0479 C.ar      1 <0>        -0.0865
     39 C28         1.4675    2.7106    0.5983 C.ar      1 <0>        -0.1607
     40 H1         -2.9364    6.1998   -4.2354 H         1 <0>         0.1315
     41 H2         -3.4345    5.6939   -1.8776 H         1 <0>         0.1311
     42 H3         -2.2920    3.8259   -0.7514 H         1 <0>         0.1258
     43 H4         -0.1481    2.9743   -4.3386 H         1 <0>         0.1323
     44 H5         -1.2895    4.8432   -5.4644 H         1 <0>         0.1337
     45 H6          0.5404    2.0080   -2.2207 H         1 <0>         0.1522
     46 H7         -0.3540    2.3637   -0.7234 H         1 <0>         0.1338
     47 H8         -0.1701   -1.3093   -1.9525 H         1 <0>         0.4287
     48 H9         -0.4414    0.3656    0.4887 H         1 <0>         0.1171
     49 H10        -1.5939   -2.0275    0.3161 H         1 <0>         0.1067
     50 H11         0.0579   -2.6038    0.6443 H         1 <0>         0.1258
     51 H12         1.2893   -1.2360    2.5745 H         1 <0>         0.1469
     52 H13         1.0039   -0.7097    4.9617 H         1 <0>         0.1476
     53 H14        -3.2352   -1.0608    4.5226 H         1 <0>         0.1412
     54 H15        -2.9397   -1.5756    2.1341 H         1 <0>         0.1473
     55 H16        -0.7055    0.0800    6.6852 H         1 <0>         0.4443
     56 H17        -3.2349   -1.2172    8.7376 H         1 <0>         0.4439
     57 H18        -2.8229   -2.4334    5.5204 H         1 <0>         0.4441
     58 H19        -3.8147   -2.4598    6.8763 H         1 <0>         0.4400
     59 H20         4.8912    0.5431   -1.2982 H         1 <0>         0.1341
     60 H21         6.8209   -0.8661   -1.8893 H         1 <0>         0.1364
     61 H22         6.4767   -3.2098   -2.5579 H         1 <0>         0.1341
     62 H23         4.2034   -4.1497   -2.6368 H         1 <0>         0.1370
     63 H24         2.2695   -2.7503   -2.0363 H         1 <0>         0.1300
     64 H25         4.5265    1.3327    0.1811 H         1 <0>         0.1421
     65 H26         4.9506    3.5464   -0.8081 H         1 <0>         0.1434
     66 H27         3.1512    5.2235   -0.8933 H         1 <0>         0.1389
     67 H28         0.9243    4.6915    0.0097 H         1 <0>         0.1389
     68 H29         0.4889    2.4762    0.9904 H         1 <0>         0.1279
     69 H30        -1.9826   -0.1014    8.6413 H         1 <0>         0.4423
@<TRIPOS>BOND
     1    1    6 ar
     2    1    2 ar
     3    1   40 1
     4    2    3 ar
     5    2   41 1
     6    3    4 ar
     7    3   42 1
     8    4    5 ar
     9    4    7 1
    10    5    6 ar
    11    5   43 1
    12    6   44 1
    13    7    8 1
    14    7   45 1
    15    7   46 1
    16    8    9 2
    17    8   10 2
    18    8   11 1
    19   11   12 1
    20   11   47 1
    21   12   13 1
    22   12   24 1
    23   12   48 1
    24   13   14 1
    25   13   49 1
    26   13   50 1
    27   14   19 ar
    28   14   15 ar
    29   15   16 ar
    30   15   51 1
    31   16   17 ar
    32   16   52 1
    33   17   18 ar
    34   17   20 1
    35   18   19 ar
    36   18   53 1
    37   19   54 1
    38   20   21 1
    39   20   55 1
    40   21   22 2
    41   21   23 1
    42   22   56 1
    43   22   69 1
    44   23   57 1
    45   23   58 1
    46   24   25 2
    47   24   26 1
    48   24   33 1
    49   26   27 1
    50   27   32 ar
    51   27   28 ar
    52   28   29 ar
    53   28   59 1
    54   29   30 ar
    55   29   60 1
    56   30   31 ar
    57   30   61 1
    58   31   32 ar
    59   31   62 1
    60   32   63 1
    61   33   34 1
    62   34   39 ar
    63   34   35 ar
    64   35   36 ar
    65   35   64 1
    66   36   37 ar
    67   36   65 1
    68   37   38 ar
    69   37   66 1
    70   38   39 ar
    71   38   67 1
    72   39   68 1
