@<TRIPOS>MOLECULE
1SQT-UI3
 43 45 0 0 0
SMALL
SF_CHARGES


@<TRIPOS>ATOM
1    C        22.8630   15.2860   32.9690  C.2        1 SUBUNIT     -0.0830
2    C        21.6050   15.5170   32.3500  C.2        1 SUBUNIT     -0.0799
3    C        20.8180   16.6100   32.7350  C.2        1 SUBUNIT      0.0111
4    C        21.2960   17.5270   33.7420  C.2        1 SUBUNIT      0.0047
5    C        22.5690   17.3060   34.3480  C.2        1 SUBUNIT     -0.0121
6    C        23.3240   16.1860   33.9870  C.2        1 SUBUNIT      0.1718
7    C        19.5460   16.7560   32.1380  C.2        1 SUBUNIT     -0.0838
8    C        18.7320   17.7980   32.5450  C.2        1 SUBUNIT     -0.0843
9    C        19.1780   18.6980   33.5390  C.2        1 SUBUNIT     -0.0044
10   C        20.4510   18.5740   34.1440  C.2        1 SUBUNIT     -0.0892
11   C        18.3140   19.7900   33.9540  C.2        1 SUBUNIT      0.3866
12   N        16.9780   19.7470   33.6840  N.pl3      1 SUBUNIT     -0.6118
13   N        18.7730   20.8310   34.5960  N.pl3      1 SUBUNIT     -0.6118
14   O        24.5530   16.0550   34.7060  O.3        1 SUBUNIT     -0.3698
15   C        25.5590   15.1380   34.2870  C.3        1 SUBUNIT      0.1778
16   C        23.2310   18.2790   35.2620  C.2        1 SUBUNIT     -0.0242
17   C        23.8430   17.9820   36.4130  C.2        1 SUBUNIT      0.0785
18   N        23.9820   19.2160   37.2050  N.pl3      1 SUBUNIT     -0.3295
19   N        24.1440   20.1530   36.0980  N.3        1 SUBUNIT     -0.4221
20   C        23.3510   19.7130   35.0840  C.3        1 SUBUNIT      0.1766
21   S        24.9760   19.1860   38.6680  S.o2       1 SUBUNIT      1.3007
22   O        24.8390   20.5130   39.2400  O.2        1 SUBUNIT     -0.6022
23   O        26.2700   18.8100   38.1540  O.2        1 SUBUNIT     -0.6022
24   C        24.4350   17.8920   39.7690  C.3        1 SUBUNIT     -0.1313
25   H        23.4611   14.4419   32.6733  H          1 SUBUNIT      0.1355
26   H        21.2488   14.8536   31.5814  H          1 SUBUNIT      0.1349
27   H        19.2061   16.0737   31.3785  H          1 SUBUNIT      0.1338
28   H        17.7603   17.9140   32.0977  H          1 SUBUNIT      0.1323
29   H        20.7702   19.2692   34.9007  H          1 SUBUNIT      0.1306
30   H        16.3807   20.5058   33.9730  H          1 SUBUNIT      0.3311
31   H        16.5877   18.9564   33.1955  H          1 SUBUNIT      0.3311
32   H        18.1459   21.5713   34.8694  H          1 SUBUNIT      0.3311
33   H        25.1782   14.1113   34.2858  H          1 SUBUNIT      0.0470
34   H        26.4260   15.1746   34.9548  H          1 SUBUNIT      0.0470
35   H        25.9043   15.3701   33.2741  H          1 SUBUNIT      0.0470
36   H        24.1636   16.9887   36.6745  H          1 SUBUNIT      0.0907
37   H        24.4840   21.0209   36.4817  H          1 SUBUNIT      0.3237
38   H        23.8177   19.9514   34.1226  H          1 SUBUNIT      0.0445
39   H        22.3719   20.1994   35.1456  H          1 SUBUNIT      0.0445
40   H        23.3927   18.0424   40.0691  H          1 SUBUNIT      0.0660
41   H        25.0466   17.8681   40.6770  H          1 SUBUNIT      0.0660
42   H        24.5085   16.9111   39.2878  H          1 SUBUNIT      0.0660
43   H        19.7285   20.9995   34.8692  H          1 SUBUNIT      0.3311
@<TRIPOS>BOND
     1    1    2 2
     2    1    6 1
     3    2    3 1
     4    3    4 2
     5    3    7 1
     6    4    5 1
     7    4   10 1
     8    5    6 2
     9    5   16 1
    10    6   14 1
    11    7    8 2
    12    8    9 1
    13    9   10 2
    14    9   11 1
    15   11   12 1
    16   11   13 2
    17   14   15 1
    18   16   17 2
    19   16   20 1
    20   17   18 1
    21   18   19 1
    22   18   21 1
    23   19   20 1
    24   21   22 2
    25   21   23 2
    26   21   24 1
    27    1   25 1
    28    2   26 1
    29    7   27 1
    30    8   28 1
    31   10   29 1
    32   12   30 1
    33   12   31 1
    34   13   32 1
    35   15   33 1
    36   15   34 1
    37   15   35 1
    38   17   36 1
    39   19   37 1
    40   20   38 1
    41   20   39 1
    42   24   40 1
    43   24   41 1
    44   24   42 1
    45   13   43 1
