@<TRIPOS>MOLECULE
CHEMBL1164248
   60    63     0     0     0
SMALL
USER_CHARGES

@<TRIPOS>ATOM
      1 C1         -0.6559   -1.9467    4.6228 C.ar      1 <0>        -0.1110
      2 C2          0.3394   -0.9967    4.7667 C.ar      1 <0>        -0.1183
      3 C3          1.5872   -1.2122    4.2183 C.ar      1 <0>        -0.1044
      4 C4          1.8438   -2.3901    3.5180 C.ar      1 <0>        -0.0610
      5 C5          0.8368   -3.3440    3.3762 C.ar      1 <0>        -0.1045
      6 C6         -0.4071   -3.1174    3.9290 C.ar      1 <0>        -0.1188
      7 C7          3.1820   -2.6273    2.9261 C.ar      1 <0>        -0.0058
      8 C8          4.1889   -1.6724    3.0748 C.ar      1 <0>        -0.1252
      9 C9          5.4274   -1.8897    2.5286 C.ar      1 <0>        -0.0541
     10 C10         5.6818   -3.0708    1.8212 C.ar      1 <0>        -0.1754
     11 C11         4.6702   -4.0273    1.6733 C.ar      1 <0>        -0.0688
     12 C12         3.4348   -3.8079    2.2258 C.ar      1 <0>        -0.1262
     13 C13         7.0088   -3.3060    1.2342 C.2       1 <0>         0.3938
     14 O1          7.8843   -2.4766    1.3626 O.2       1 <0>        -0.4373
     15 C14         7.2813   -4.5777    0.4730 C.3       1 <0>        -0.1799
     16 C15         8.7266   -4.5718   -0.0291 C.3       1 <0>         0.1569
     17 C16         8.9669   -5.8023   -0.9060 C.3       1 <0>        -0.1010
     18 C17         8.8530   -7.0669   -0.0525 C.3       1 <0>        -0.1149
     19 C18         9.0933   -8.2974   -0.9294 C.3       1 <0>        -0.1189
     20 C19        10.4926   -8.2208   -1.5433 C.3       1 <0>        -0.1207
     21 C20        10.6065   -6.9561   -2.3969 C.3       1 <0>        -0.1195
     22 C21        10.3662   -5.7256   -1.5199 C.3       1 <0>        -0.1145
     23 N1          9.6411   -4.6014    1.1151 N.pl3     1 <0>        -0.7128
     24 C22        10.7997   -3.8213    1.1034 C.ar      1 <0>         0.2845
     25 C23        11.1470   -3.1077   -0.0366 C.ar      1 <0>        -0.1938
     26 C24        12.2929   -2.3370   -0.0446 C.ar      1 <0>        -0.0053
     27 C25        13.0943   -2.2752    1.0807 C.ar      1 <0>        -0.1144
     28 C26        12.7515   -2.9843    2.2173 C.ar      1 <0>        -0.0043
     29 C27        11.6041   -3.7528    2.2338 C.ar      1 <0>        -0.1983
     30 N2         14.3219   -1.4485    1.0684 N.pl3     1 <0>         0.0464
     31 O2         14.6231   -0.8283    0.0753 O.2       1 <0>        -0.1763
     32 O3         15.0235   -1.3935    2.0515 O.3       1 <0>        -0.1771
     33 H1         -1.6296   -1.7757    5.0576 H         1 <0>         0.1255
     34 H2          0.1393   -0.0844    5.3091 H         1 <0>         0.1270
     35 H3          2.3633   -0.4696    4.3310 H         1 <0>         0.1269
     36 H4          1.0298   -4.2581    2.8345 H         1 <0>         0.1268
     37 H5         -1.1879   -3.8555    3.8198 H         1 <0>         0.1269
     38 H6          3.9921   -0.7613    3.6203 H         1 <0>         0.1326
     39 H7          6.2061   -1.1503    2.6437 H         1 <0>         0.1353
     40 H8          4.8641   -4.9389    1.1277 H         1 <0>         0.1335
     41 H9          2.6555   -4.5474    2.1158 H         1 <0>         0.1329
     42 H10         7.1283   -5.4341    1.1297 H         1 <0>         0.1073
     43 H11         6.6018   -4.6453   -0.3766 H         1 <0>         0.1159
     44 H12         8.9046   -3.6689   -0.6132 H         1 <0>         0.0983
     45 H13         8.2223   -5.8325   -1.7015 H         1 <0>         0.0835
     46 H14         9.5976   -7.0367    0.7430 H         1 <0>         0.0641
     47 H15         7.8561   -7.1215    0.3849 H         1 <0>         0.0623
     48 H16         9.0121   -9.1984   -0.3214 H         1 <0>         0.0615
     49 H17         8.3487   -8.3277   -1.7249 H         1 <0>         0.0622
     50 H18        11.2372   -8.1905   -0.7478 H         1 <0>         0.0600
     51 H19        10.6638   -9.0974   -2.1681 H         1 <0>         0.0610
     52 H20        11.6035   -6.9015   -2.8342 H         1 <0>         0.0622
     53 H21         9.8620   -6.9863   -3.1923 H         1 <0>         0.0618
     54 H22        10.4474   -4.8246   -2.1280 H         1 <0>         0.0621
     55 H23        11.1108   -5.6954   -0.7244 H         1 <0>         0.0667
     56 H24         9.4421   -5.1627    1.8807 H         1 <0>         0.4036
     57 H25        10.5217   -3.1558   -0.9159 H         1 <0>         0.1429
     58 H26        12.5637   -1.7822   -0.9307 H         1 <0>         0.1488
     59 H27        13.3797   -2.9341    3.0944 H         1 <0>         0.1493
     60 H28        11.3348   -4.3031    3.1232 H         1 <0>         0.1400
@<TRIPOS>BOND
     1    1    6 ar
     2    1    2 ar
     3    1   33 1
     4    2    3 ar
     5    2   34 1
     6    3    4 ar
     7    3   35 1
     8    4    5 ar
     9    4    7 1
    10    5    6 ar
    11    5   36 1
    12    6   37 1
    13    7   12 ar
    14    7    8 ar
    15    8    9 ar
    16    8   38 1
    17    9   10 ar
    18    9   39 1
    19   10   11 ar
    20   10   13 1
    21   11   12 ar
    22   11   40 1
    23   12   41 1
    24   13   14 2
    25   13   15 1
    26   15   16 1
    27   15   42 1
    28   15   43 1
    29   16   17 1
    30   16   23 1
    31   16   44 1
    32   17   22 1
    33   17   18 1
    34   17   45 1
    35   18   19 1
    36   18   46 1
    37   18   47 1
    38   19   20 1
    39   19   48 1
    40   19   49 1
    41   20   21 1
    42   20   50 1
    43   20   51 1
    44   21   22 1
    45   21   52 1
    46   21   53 1
    47   22   54 1
    48   22   55 1
    49   23   24 1
    50   23   56 1
    51   24   29 ar
    52   24   25 ar
    53   25   26 ar
    54   25   57 1
    55   26   27 ar
    56   26   58 1
    57   27   28 ar
    58   27   30 1
    59   28   29 ar
    60   28   59 1
    61   29   60 1
    62   30   31 2
    63   30   32 1
@<TRIPOS>MOLECULE
CHEMBL1164248__1
   60    63     0     0     0
SMALL
USER_CHARGES

@<TRIPOS>ATOM
      1 C1         -0.9357   -0.2372   -1.0843 C.ar      1 <0>        -0.1110
      2 C2          0.1112    0.6661   -1.1244 C.ar      1 <0>        -0.1183
      3 C3          1.4131    0.2232   -1.0093 C.ar      1 <0>        -0.1044
      4 C4          1.6722   -1.1378   -0.8524 C.ar      1 <0>        -0.0609
      5 C5          0.6129   -2.0435   -0.8127 C.ar      1 <0>        -0.1045
      6 C6         -0.6848   -1.5888   -0.9288 C.ar      1 <0>        -0.1188
      7 C7          3.0685   -1.6199   -0.7288 C.ar      1 <0>        -0.0059
      8 C8          4.1257   -0.7094   -0.7637 C.ar      1 <0>        -0.1251
      9 C9          5.4178   -1.1530   -0.6490 C.ar      1 <0>        -0.0541
     10 C10         5.6765   -2.5204   -0.4969 C.ar      1 <0>        -0.1752
     11 C11         4.6143   -3.4319   -0.4621 C.ar      1 <0>        -0.0689
     12 C12         3.3235   -2.9831   -0.5718 C.ar      1 <0>        -0.1261
     13 C13         7.0610   -2.9986   -0.3743 C.2       1 <0>         0.3942
     14 O1          7.9804   -2.2083   -0.4049 O.2       1 <0>        -0.4376
     15 C14         7.3381   -4.4708   -0.2105 C.3       1 <0>        -0.1817
     16 C15         8.8477   -4.6972   -0.1066 C.3       1 <0>         0.1566
     17 C16         9.1231   -6.1739    0.1840 C.3       1 <0>        -0.0995
     18 C17         8.5383   -6.5427    1.5489 C.3       1 <0>        -0.1165
     19 C18         8.8137   -8.0194    1.8396 C.3       1 <0>        -0.1183
     20 C19        10.3240   -8.2643    1.8487 C.3       1 <0>        -0.1219
     21 C20        10.9088   -7.8955    0.4839 C.3       1 <0>        -0.1194
     22 C21        10.6333   -6.4188    0.1932 C.3       1 <0>        -0.1120
     23 N1          9.4860   -4.3210   -1.3704 N.pl3     1 <0>        -0.7163
     24 C22        10.6636   -3.5700   -1.3616 C.ar      1 <0>         0.2852
     25 C23        11.3176   -3.3149   -0.1629 C.ar      1 <0>        -0.1921
     26 C24        12.4820   -2.5724   -0.1577 C.ar      1 <0>        -0.0053
     27 C25        12.9971   -2.0831   -1.3441 C.ar      1 <0>        -0.1137
     28 C26        12.3487   -2.3352   -2.5392 C.ar      1 <0>        -0.0046
     29 C27        11.1867   -3.0814   -2.5521 C.ar      1 <0>        -0.1975
     30 N2         14.2450   -1.2874   -1.3348 N.pl3     1 <0>         0.0463
     31 O2         14.8129   -1.0658   -0.2907 O.2       1 <0>        -0.1763
     32 O3         14.6966   -0.8589   -2.3712 O.3       1 <0>        -0.1767
     33 H1         -1.9532    0.1145   -1.1702 H         1 <0>         0.1255
     34 H2         -0.0907    1.7200   -1.2463 H         1 <0>         0.1270
     35 H3          2.2297    0.9293   -1.0411 H         1 <0>         0.1269
     36 H4          0.8077   -3.0989   -0.6917 H         1 <0>         0.1268
     37 H5         -1.5061   -2.2894   -0.8983 H         1 <0>         0.1269
     38 H6          3.9257    0.3453   -0.8814 H         1 <0>         0.1326
     39 H7          6.2356   -0.4481   -0.6765 H         1 <0>         0.1352
     40 H8          4.8115   -4.4873   -0.3452 H         1 <0>         0.1334
     41 H9          2.5036   -3.6853   -0.5406 H         1 <0>         0.1329
     42 H10         6.8531   -4.8332    0.6959 H         1 <0>         0.1175
     43 H11         6.9480   -5.0120   -1.0725 H         1 <0>         0.1055
     44 H12         9.2520   -4.0865    0.7006 H         1 <0>         0.0987
     45 H13         8.6600   -6.7886   -0.5878 H         1 <0>         0.0769
     46 H14         9.0014   -5.9280    2.3207 H         1 <0>         0.0655
     47 H15         7.4624   -6.3682    1.5424 H         1 <0>         0.0656
     48 H16         8.3971   -8.2822    2.8119 H         1 <0>         0.0638
     49 H17         8.3506   -8.6342    1.0677 H         1 <0>         0.0620
     50 H18        10.7871   -7.6496    2.6206 H         1 <0>         0.0620
     51 H19        10.5202   -9.3163    2.0558 H         1 <0>         0.0616
     52 H20        11.9847   -8.0700    0.4904 H         1 <0>         0.0620
     53 H21        10.4457   -8.5102   -0.2880 H         1 <0>         0.0604
     54 H22        11.0500   -6.1561   -0.7791 H         1 <0>         0.0645
     55 H23        11.0964   -5.8041    0.9650 H         1 <0>         0.0629
     56 H24         9.0908   -4.5933   -2.2133 H         1 <0>         0.4037
     57 H25        10.9156   -3.6964    0.7641 H         1 <0>         0.1419
     58 H26        12.9908   -2.3734    0.7739 H         1 <0>         0.1489
     59 H27        12.7535   -1.9513   -3.4640 H         1 <0>         0.1495
     60 H28        10.6830   -3.2815   -3.4863 H         1 <0>         0.1404
@<TRIPOS>BOND
     1    1    6 ar
     2    1    2 ar
     3    1   33 1
     4    2    3 ar
     5    2   34 1
     6    3    4 ar
     7    3   35 1
     8    4    5 ar
     9    4    7 1
    10    5    6 ar
    11    5   36 1
    12    6   37 1
    13    7   12 ar
    14    7    8 ar
    15    8    9 ar
    16    8   38 1
    17    9   10 ar
    18    9   39 1
    19   10   11 ar
    20   10   13 1
    21   11   12 ar
    22   11   40 1
    23   12   41 1
    24   13   14 2
    25   13   15 1
    26   15   16 1
    27   15   42 1
    28   15   43 1
    29   16   17 1
    30   16   23 1
    31   16   44 1
    32   17   22 1
    33   17   18 1
    34   17   45 1
    35   18   19 1
    36   18   46 1
    37   18   47 1
    38   19   20 1
    39   19   48 1
    40   19   49 1
    41   20   21 1
    42   20   50 1
    43   20   51 1
    44   21   22 1
    45   21   52 1
    46   21   53 1
    47   22   54 1
    48   22   55 1
    49   23   24 1
    50   23   56 1
    51   24   29 ar
    52   24   25 ar
    53   25   26 ar
    54   25   57 1
    55   26   27 ar
    56   26   58 1
    57   27   28 ar
    58   27   30 1
    59   28   29 ar
    60   28   59 1
    61   29   60 1
    62   30   31 2
    63   30   32 1
@<TRIPOS>MOLECULE
CHEMBL1164338
   66    69     0     0     0
SMALL
USER_CHARGES

@<TRIPOS>ATOM
      1 C1          1.0952   -0.1107    3.1193 C.ar      1 <0>        -0.1298
      2 C2          1.9101    0.8622    2.5803 C.ar      1 <0>        -0.0560
      3 C3          3.0587    0.4939    1.8725 C.ar      1 <0>        -0.1784
      4 C4          3.3712   -0.8604    1.7172 C.ar      1 <0>        -0.0713
      5 C5          2.5462   -1.8215    2.2621 C.ar      1 <0>        -0.1279
      6 C6          1.4113   -1.4489    2.9612 C.ar      1 <0>        -0.0392
      7 C7          0.5151   -2.5058    3.5535 C.3       1 <0>        -0.0544
      8 C8          1.3101   -3.3458    4.5551 C.3       1 <0>        -0.1102
      9 C9          0.4001   -4.4188    5.1564 C.3       1 <0>        -0.1208
     10 C10        -0.1298   -5.3218    4.0408 C.3       1 <0>        -0.1216
     11 C11        -0.9248   -4.4818    3.0391 C.3       1 <0>        -0.1208
     12 C12        -0.0149   -3.4087    2.4378 C.3       1 <0>        -0.1103
     13 C13         3.9336    1.5260    1.2937 C.2       1 <0>         0.3943
     14 O1          3.6594    2.6992    1.4298 O.2       1 <0>        -0.4385
     15 C14         5.1703    1.1247    0.5317 C.3       1 <0>        -0.1795
     16 C15         5.8956    2.3788    0.0398 C.3       1 <0>         0.1569
     17 C16         7.0807    1.9713   -0.8380 C.3       1 <0>        -0.1009
     18 C17         8.1134    1.2286    0.0121 C.3       1 <0>        -0.1148
     19 C18         9.2984    0.8211   -0.8657 C.3       1 <0>        -0.1188
     20 C19         9.9397    2.0720   -1.4697 C.3       1 <0>        -0.1206
     21 C20         8.9070    2.8148   -2.3197 C.3       1 <0>        -0.1195
     22 C21         7.7219    3.2223   -1.4419 C.3       1 <0>        -0.1146
     23 N1          6.3808    3.1452    1.1902 N.pl3     1 <0>        -0.7126
     24 C22         6.2924    4.5391    1.1883 C.ar      1 <0>         0.2846
     25 C23         5.8537    5.2072    0.0522 C.ar      1 <0>        -0.1938
     26 C24         5.7669    6.5855    0.0538 C.ar      1 <0>        -0.0052
     27 C25         6.1161    7.3005    1.1848 C.ar      1 <0>        -0.1145
     28 C26         6.5532    6.6386    2.3175 C.ar      1 <0>        -0.0043
     29 C27         6.6374    5.2601    2.3244 C.ar      1 <0>        -0.1984
     30 N2          6.0223    8.7776    1.1828 N.pl3     1 <0>         0.0465
     31 O2          5.6407    9.3577    0.1931 O.2       1 <0>        -0.1765
     32 O3          6.3273    9.4040    2.1708 O.3       1 <0>        -0.1770
     33 H1          0.2103    0.1722    3.6700 H         1 <0>         0.1284
     34 H2          1.6619    1.9060    2.7041 H         1 <0>         0.1322
     35 H3          4.2563   -1.1527    1.1716 H         1 <0>         0.1302
     36 H4          2.7860   -2.8677    2.1428 H         1 <0>         0.1284
     37 H5         -0.3220   -2.0285    4.0631 H         1 <0>         0.0811
     38 H6          2.1471   -3.8231    4.0455 H         1 <0>         0.0651
     39 H7          1.6876   -2.7025    5.3499 H         1 <0>         0.0636
     40 H8          0.9665   -5.0173    5.8700 H         1 <0>         0.0641
     41 H9         -0.4369   -3.9416    5.6660 H         1 <0>         0.0629
     42 H10         0.7072   -5.7991    3.5312 H         1 <0>         0.0618
     43 H11        -0.7781   -6.0863    4.4691 H         1 <0>         0.0625
     44 H12        -1.3024   -5.1251    2.2443 H         1 <0>         0.0643
     45 H13        -1.7618   -4.0045    3.5487 H         1 <0>         0.0629
     46 H14        -0.5813   -2.8103    1.7242 H         1 <0>         0.0639
     47 H15         0.8221   -3.8860    1.9282 H         1 <0>         0.0652
     48 H16         5.8312    0.5556    1.1855 H         1 <0>         0.1068
     49 H17         4.8871    0.5101   -0.3228 H         1 <0>         0.1153
     50 H18         5.2071    2.9924   -0.5412 H         1 <0>         0.0981
     51 H19         6.7323    1.3190   -1.6387 H         1 <0>         0.0834
     52 H20         8.4618    1.8809    0.8128 H         1 <0>         0.0640
     53 H21         7.6566    0.3373    0.4423 H         1 <0>         0.0622
     54 H22        10.0342    0.2919   -0.2601 H         1 <0>         0.0615
     55 H23         8.9501    0.1687   -1.6665 H         1 <0>         0.0621
     56 H24        10.2881    2.7244   -0.6689 H         1 <0>         0.0599
     57 H25        10.7840    1.7817   -2.0950 H         1 <0>         0.0610
     58 H26         9.3638    3.7060   -2.7500 H         1 <0>         0.0622
     59 H27         8.5586    2.1625   -3.1205 H         1 <0>         0.0618
     60 H28         6.9862    3.7515   -2.0475 H         1 <0>         0.0621
     61 H29         8.0703    3.8747   -0.6412 H         1 <0>         0.0667
     62 H30         6.7636    2.6845    1.9533 H         1 <0>         0.4035
     63 H31         5.5811    4.6494   -0.8316 H         1 <0>         0.1428
     64 H32         5.4262    7.1056   -0.8293 H         1 <0>         0.1488
     65 H33         6.8256    7.2000    3.1990 H         1 <0>         0.1492
     66 H34         6.9749    4.7435    3.2108 H         1 <0>         0.1400
@<TRIPOS>BOND
     1    1    6 ar
     2    1    2 ar
     3    1   33 1
     4    2    3 ar
     5    2   34 1
     6    3    4 ar
     7    3   13 1
     8    4    5 ar
     9    4   35 1
    10    5    6 ar
    11    5   36 1
    12    6    7 1
    13    7   12 1
    14    7    8 1
    15    7   37 1
    16    8    9 1
    17    8   38 1
    18    8   39 1
    19    9   10 1
    20    9   40 1
    21    9   41 1
    22   10   11 1
    23   10   42 1
    24   10   43 1
    25   11   12 1
    26   11   44 1
    27   11   45 1
    28   12   46 1
    29   12   47 1
    30   13   14 2
    31   13   15 1
    32   15   16 1
    33   15   48 1
    34   15   49 1
    35   16   17 1
    36   16   23 1
    37   16   50 1
    38   17   22 1
    39   17   18 1
    40   17   51 1
    41   18   19 1
    42   18   52 1
    43   18   53 1
    44   19   20 1
    45   19   54 1
    46   19   55 1
    47   20   21 1
    48   20   56 1
    49   20   57 1
    50   21   22 1
    51   21   58 1
    52   21   59 1
    53   22   60 1
    54   22   61 1
    55   23   24 1
    56   23   62 1
    57   24   29 ar
    58   24   25 ar
    59   25   26 ar
    60   25   63 1
    61   26   27 ar
    62   26   64 1
    63   27   28 ar
    64   27   30 1
    65   28   29 ar
    66   28   65 1
    67   29   66 1
    68   30   31 2
    69   30   32 1
@<TRIPOS>MOLECULE
CHEMBL1164338__1
   66    69     0     0     0
SMALL
USER_CHARGES

@<TRIPOS>ATOM
      1 C1          0.2379    0.3470   -0.7217 C.ar      1 <0>        -0.1298
      2 C2          1.2748    1.2475   -0.5983 C.ar      1 <0>        -0.0560
      3 C3          2.5851    0.7829   -0.4466 C.ar      1 <0>        -0.1783
      4 C4          2.8328   -0.5933   -0.4214 C.ar      1 <0>        -0.0714
      5 C5          1.7852   -1.4811   -0.5461 C.ar      1 <0>        -0.1279
      6 C6          0.4912   -1.0134   -0.6958 C.ar      1 <0>        -0.0393
      7 C7         -0.6480   -1.9906   -0.8314 C.3       1 <0>        -0.0544
      8 C8         -0.7136   -2.8738    0.4162 C.3       1 <0>        -0.1103
      9 C9         -1.8701   -3.8659    0.2786 C.3       1 <0>        -0.1208
     10 C10        -1.6461   -4.7423   -0.9554 C.3       1 <0>        -0.1216
     11 C11        -1.5805   -3.8592   -2.2031 C.3       1 <0>        -0.1208
     12 C12        -0.4240   -2.8670   -2.0654 C.3       1 <0>        -0.1102
     13 C13         3.6976    1.7372   -0.3147 C.2       1 <0>         0.3947
     14 O1          3.4794    2.9297   -0.3374 O.2       1 <0>        -0.4388
     15 C14         5.1081    1.2323   -0.1515 C.3       1 <0>        -0.1813
     16 C15         6.0651    2.4206   -0.0372 C.3       1 <0>         0.1566
     17 C16         7.4784    1.9111    0.2529 C.3       1 <0>        -0.0995
     18 C17         7.4988    1.2105    1.6129 C.3       1 <0>        -0.1165
     19 C18         8.9120    0.7011    1.9030 C.3       1 <0>        -0.1183
     20 C19         9.8855    1.8813    1.9226 C.3       1 <0>        -0.1219
     21 C20         9.8651    2.5819    0.5626 C.3       1 <0>        -0.1193
     22 C21         8.4519    3.0913    0.2725 C.3       1 <0>        -0.1121
     23 N1          6.0651    3.1704   -1.2957 N.pl3     1 <0>        -0.7162
     24 C22         6.0110    4.5660   -1.2772 C.ar      1 <0>         0.2853
     25 C23         6.1181    5.2508   -0.0734 C.ar      1 <0>        -0.1921
     26 C24         6.0647    6.6307   -0.0586 C.ar      1 <0>        -0.0054
     27 C25         5.9048    7.3307   -1.2405 C.ar      1 <0>        -0.1138
     28 C26         5.7978    6.6521   -2.4406 C.ar      1 <0>        -0.0046
     29 C27         5.8557    5.2724   -2.4631 C.ar      1 <0>        -0.1976
     30 N2          5.8474    8.8095   -1.2208 N.pl3     1 <0>         0.0464
     31 O2          5.9404    9.4042   -0.1723 O.2       1 <0>        -0.1763
     32 O3          5.7076    9.4228   -2.2532 O.3       1 <0>        -0.1766
     33 H1         -0.7751    0.7042   -0.8344 H         1 <0>         0.1284
     34 H2          1.0756    2.3088   -0.6190 H         1 <0>         0.1322
     35 H3          3.8421   -0.9597   -0.3050 H         1 <0>         0.1301
     36 H4          1.9749   -2.5441   -0.5271 H         1 <0>         0.1284
     37 H5         -1.5848   -1.4439   -0.9393 H         1 <0>         0.0811
     38 H6          0.2232   -3.4205    0.5241 H         1 <0>         0.0652
     39 H7         -0.8732   -2.2494    1.2953 H         1 <0>         0.0639
     40 H8         -1.9169   -4.4951    1.1674 H         1 <0>         0.0643
     41 H9         -2.8069   -3.3192    0.1707 H         1 <0>         0.0629
     42 H10        -0.7093   -5.2890   -0.8476 H         1 <0>         0.0618
     43 H11        -2.4701   -5.4491   -1.0535 H         1 <0>         0.0625
     44 H12        -1.4209   -4.4835   -3.0822 H         1 <0>         0.0642
     45 H13        -2.5173   -3.3125   -2.3109 H         1 <0>         0.0629
     46 H14        -0.3773   -2.2379   -2.9543 H         1 <0>         0.0636
     47 H15         0.5128   -3.4137   -1.9576 H         1 <0>         0.0651
     48 H16         5.1743    0.6244    0.7508 H         1 <0>         0.1170
     49 H17         5.3804    0.6285   -1.0172 H         1 <0>         0.1049
     50 H18         5.7401    3.0721    0.7739 H         1 <0>         0.0985
     51 H19         7.7771    1.2066   -0.5233 H         1 <0>         0.0768
     52 H20         7.2001    1.9151    2.3891 H         1 <0>         0.0655
     53 H21         6.8052    0.3698    1.5990 H         1 <0>         0.0655
     54 H22         8.9265    0.2020    2.8719 H         1 <0>         0.0637
     55 H23         9.2107   -0.0035    1.1269 H         1 <0>         0.0620
     56 H24         9.5868    2.5858    2.6988 H         1 <0>         0.0620
     57 H25        10.8923    1.5183    2.1293 H         1 <0>         0.0616
     58 H26        10.5587    3.4226    0.5766 H         1 <0>         0.0620
     59 H27        10.1638    1.8773   -0.2136 H         1 <0>         0.0604
     60 H28         8.4374    3.5904   -0.6964 H         1 <0>         0.0645
     61 H29         8.1532    3.7959    1.0487 H         1 <0>         0.0629
     62 H30         6.1027    2.6977   -2.1419 H         1 <0>         0.4037
     63 H31         6.2427    4.7047    0.8500 H         1 <0>         0.1418
     64 H32         6.1476    7.1638    0.8770 H         1 <0>         0.1488
     65 H33         5.6726    7.2018   -3.3618 H         1 <0>         0.1495
     66 H34         5.7762    4.7432   -3.4012 H         1 <0>         0.1403
@<TRIPOS>BOND
     1    1    6 ar
     2    1    2 ar
     3    1   33 1
     4    2    3 ar
     5    2   34 1
     6    3    4 ar
     7    3   13 1
     8    4    5 ar
     9    4   35 1
    10    5    6 ar
    11    5   36 1
    12    6    7 1
    13    7   12 1
    14    7    8 1
    15    7   37 1
    16    8    9 1
    17    8   38 1
    18    8   39 1
    19    9   10 1
    20    9   40 1
    21    9   41 1
    22   10   11 1
    23   10   42 1
    24   10   43 1
    25   11   12 1
    26   11   44 1
    27   11   45 1
    28   12   46 1
    29   12   47 1
    30   13   14 2
    31   13   15 1
    32   15   16 1
    33   15   48 1
    34   15   49 1
    35   16   17 1
    36   16   23 1
    37   16   50 1
    38   17   22 1
    39   17   18 1
    40   17   51 1
    41   18   19 1
    42   18   52 1
    43   18   53 1
    44   19   20 1
    45   19   54 1
    46   19   55 1
    47   20   21 1
    48   20   56 1
    49   20   57 1
    50   21   22 1
    51   21   58 1
    52   21   59 1
    53   22   60 1
    54   22   61 1
    55   23   24 1
    56   23   62 1
    57   24   29 ar
    58   24   25 ar
    59   25   26 ar
    60   25   63 1
    61   26   27 ar
    62   26   64 1
    63   27   28 ar
    64   27   30 1
    65   28   29 ar
    66   28   65 1
    67   29   66 1
    68   30   31 2
    69   30   32 1
@<TRIPOS>MOLECULE
CHEMBL398801
   46    49     0     0     0
SMALL
USER_CHARGES

@<TRIPOS>ATOM
      1 C1          0.1256    1.5462    0.0426 C.3       1 <0>        -0.1570
      2 C2          0.1282    0.0163    0.0210 C.3       1 <0>        -0.1042
      3 C3         -1.3126   -0.4953   -0.0359 C.3       1 <0>         0.2678
      4 C4         -1.3179   -2.0006    0.0513 C.ar      1 <0>        -0.1285
      5 C5         -0.3490   -2.6735    0.7630 C.ar      1 <0>        -0.1121
      6 C6         -0.3793   -4.0617    0.8279 C.ar      1 <0>         0.1689
      7 C7         -1.3839   -4.7671    0.1774 C.ar      1 <0>        -0.1230
      8 C8         -2.3542   -4.0909   -0.5368 C.ar      1 <0>        -0.1106
      9 C9         -2.3225   -2.7071   -0.6014 C.ar      1 <0>         0.1387
     10 N1         -3.2919   -1.9930   -1.3209 N.am      1 <0>        -0.5607
     11 C10        -3.0656   -0.6981   -1.6249 C.2       1 <0>         0.6593
     12 O1         -3.9127   -0.0639   -2.2224 O.2       1 <0>        -0.4988
     13 O2         -1.9124   -0.1015   -1.2733 O.3       1 <0>        -0.3206
     14 C11        -4.5354   -2.6458   -1.7380 C.3       1 <0>         0.0860
     15 N2          0.6028   -4.7493    1.5495 N.pl3     1 <0>        -0.6816
     16 C12         0.9140   -6.0709    1.2210 C.ar      1 <0>         0.1922
     17 C13         0.8290   -6.4989   -0.0983 C.ar      1 <0>        -0.1598
     18 C14         1.1376   -7.8057   -0.4203 C.ar      1 <0>        -0.0731
     19 C15         1.5313   -8.6889    0.5683 C.ar      1 <0>        -0.1413
     20 C16         1.6173   -8.2666    1.8834 C.ar      1 <0>        -0.0013
     21 C17         1.3147   -6.9583    2.2115 C.ar      1 <0>        -0.1568
     22 Cl1         2.1114   -9.3791    3.1211 Cl        1 <0>        -0.0641
     23 C18        -2.0991    0.0821    1.1127 C.2       1 <0>        -0.1907
     24 C19        -2.8179    1.2302    1.1632 C.2       1 <0>        -0.1233
     25 C20        -3.4664    1.5638    2.3375 C.2       1 <0>        -0.1591
     26 C21        -3.3644    0.7331    3.4037 C.2       1 <0>        -0.1671
     27 S1         -2.3321   -0.5723    2.7572 S.3       1 <0>         0.0707
     28 H1          1.1521    1.9107    0.0831 H         1 <0>         0.0638
     29 H2         -0.3579    1.9215   -0.8593 H         1 <0>         0.0653
     30 H3         -0.4191    1.8963    0.9194 H         1 <0>         0.0617
     31 H4          0.6729   -0.3338   -0.8558 H         1 <0>         0.0879
     32 H5          0.6117   -0.3590    0.9229 H         1 <0>         0.0919
     33 H6          0.4316   -2.1244    1.2685 H         1 <0>         0.1391
     34 H7         -1.4063   -5.8456    0.2298 H         1 <0>         0.1386
     35 H8         -3.1351   -4.6391   -1.0428 H         1 <0>         0.1403
     36 H9         -5.2887   -2.5233   -0.9598 H         1 <0>         0.0695
     37 H10        -4.8914   -2.1921   -2.6629 H         1 <0>         0.0906
     38 H11        -4.3512   -3.7076   -1.9015 H         1 <0>         0.0847
     39 H12         1.0674   -4.3083    2.2778 H         1 <0>         0.4136
     40 H13         0.5213   -5.8102   -0.8712 H         1 <0>         0.1330
     41 H14         1.0712   -8.1386   -1.4456 H         1 <0>         0.1361
     42 H15         1.7718   -9.7106    0.3136 H         1 <0>         0.1345
     43 H16         1.3858   -6.6277    3.2372 H         1 <0>         0.1355
     44 H17        -2.8828    1.8747    0.2991 H         1 <0>         0.1376
     45 H18        -4.0455    2.4729    2.4045 H         1 <0>         0.1376
     46 H19        -3.7982    0.8329    4.3876 H         1 <0>         0.1887
@<TRIPOS>BOND
     1    1    2 1
     2    1   28 1
     3    1   29 1
     4    1   30 1
     5    2    3 1
     6    2   31 1
     7    2   32 1
     8    3   13 1
     9    3    4 1
    10    3   23 1
    11    4    9 ar
    12    4    5 ar
    13    5    6 ar
    14    5   33 1
    15    6    7 ar
    16    6   15 1
    17    7    8 ar
    18    7   34 1
    19    8    9 ar
    20    8   35 1
    21    9   10 1
    22   10   11 am
    23   10   14 1
    24   11   12 2
    25   11   13 1
    26   14   36 1
    27   14   37 1
    28   14   38 1
    29   15   16 1
    30   15   39 1
    31   16   21 ar
    32   16   17 ar
    33   17   18 ar
    34   17   40 1
    35   18   19 ar
    36   18   41 1
    37   19   20 ar
    38   19   42 1
    39   20   21 ar
    40   20   22 1
    41   21   43 1
    42   23   27 1
    43   23   24 2
    44   24   25 1
    45   24   44 1
    46   25   26 2
    47   25   45 1
    48   26   27 1
    49   26   46 1
@<TRIPOS>MOLECULE
CHEMBL398801__1
   46    49     0     0     0
SMALL
USER_CHARGES

@<TRIPOS>ATOM
      1 C1          0.0210    1.5457   -0.0779 C.3       1 <0>        -0.1567
      2 C2          0.0203    0.0157   -0.0711 C.3       1 <0>        -0.1039
      3 C3         -1.4217   -0.4938   -0.1169 C.3       1 <0>         0.2676
      4 C4         -1.4255   -2.0015   -0.0950 C.ar      1 <0>        -0.1281
      5 C5         -0.3955   -2.7220   -0.6591 C.ar      1 <0>        -0.1121
      6 C6         -0.4259   -4.1113   -0.6259 C.ar      1 <0>         0.1691
      7 C7         -1.4920   -4.7701   -0.0263 C.ar      1 <0>        -0.1236
      8 C8         -2.5239   -4.0461    0.5391 C.ar      1 <0>        -0.1087
      9 C9         -2.4918   -2.6612    0.5069 C.ar      1 <0>         0.1381
     10 N1         -3.5228   -1.8991    1.0758 N.am      1 <0>        -0.5606
     11 C10        -3.3209   -0.5850    1.3057 C.2       1 <0>         0.6591
     12 O1         -4.2185    0.0886    1.7717 O.2       1 <0>        -0.4989
     13 O2         -2.1364   -0.0128    1.0250 O.3       1 <0>        -0.3201
     14 C11        -4.8041   -2.5227    1.4159 C.3       1 <0>         0.0868
     15 N2          0.6181   -4.8471   -1.1975 N.pl3     1 <0>        -0.6816
     16 C12         0.3907   -6.1509   -1.6442 C.ar      1 <0>         0.1924
     17 C13        -0.8504   -6.5037   -2.1603 C.ar      1 <0>        -0.1596
     18 C14        -1.0723   -7.7931   -2.6016 C.ar      1 <0>        -0.0732
     19 C15        -0.0611   -8.7339   -2.5306 C.ar      1 <0>        -0.1414
     20 C16         1.1763   -8.3866   -2.0173 C.ar      1 <0>        -0.0014
     21 C17         1.4064   -7.0960   -1.5788 C.ar      1 <0>        -0.1570
     22 Cl1         2.4424   -9.5711   -1.9297 Cl        1 <0>        -0.0642
     23 C18        -2.0908   -0.0030   -1.3748 C.2       1 <0>        -0.1914
     24 C19        -2.7866    1.1418   -1.5806 C.2       1 <0>        -0.1234
     25 C20        -3.3180    1.3874   -2.8328 C.2       1 <0>        -0.1593
     26 C21        -3.1274    0.4762   -3.8180 C.2       1 <0>        -0.1675
     27 S1         -2.1659   -0.7749   -2.9829 S.3       1 <0>         0.0724
     28 H1          1.0482    1.9087   -0.0453 H         1 <0>         0.0638
     29 H2         -0.4628    1.9052   -0.9861 H         1 <0>         0.0613
     30 H3         -0.5221    1.9132    0.7928 H         1 <0>         0.0662
     31 H4          0.5633   -0.3518   -0.9418 H         1 <0>         0.0915
     32 H5          0.5040   -0.3438    0.8372 H         1 <0>         0.0872
     33 H6          0.4328   -2.2091   -1.1251 H         1 <0>         0.1387
     34 H7         -1.5142   -5.8496   -0.0024 H         1 <0>         0.1385
     35 H8         -3.3530   -4.5580    1.0050 H         1 <0>         0.1394
     36 H9         -4.7660   -2.8966    2.4391 H         1 <0>         0.0705
     37 H10        -5.6018   -1.7850    1.3282 H         1 <0>         0.0901
     38 H11        -4.9979   -3.3503    0.7336 H         1 <0>         0.0836
     39 H12         1.4996   -4.4517   -1.2836 H         1 <0>         0.4136
     40 H13        -1.6409   -5.7699   -2.2159 H         1 <0>         0.1331
     41 H14        -2.0369   -8.0674   -3.0024 H         1 <0>         0.1360
     42 H15        -0.2376   -9.7417   -2.8761 H         1 <0>         0.1344
     43 H16         2.3733   -6.8240   -1.1820 H         1 <0>         0.1355
     44 H17        -2.9242    1.8513   -0.7780 H         1 <0>         0.1376
     45 H18        -3.8769    2.2917   -3.0232 H         1 <0>         0.1374
     46 H19        -3.4660    0.5022   -4.8432 H         1 <0>         0.1886
@<TRIPOS>BOND
     1    1    2 1
     2    1   28 1
     3    1   29 1
     4    1   30 1
     5    2    3 1
     6    2   31 1
     7    2   32 1
     8    3   13 1
     9    3    4 1
    10    3   23 1
    11    4    9 ar
    12    4    5 ar
    13    5    6 ar
    14    5   33 1
    15    6    7 ar
    16    6   15 1
    17    7    8 ar
    18    7   34 1
    19    8    9 ar
    20    8   35 1
    21    9   10 1
    22   10   11 am
    23   10   14 1
    24   11   12 2
    25   11   13 1
    26   14   36 1
    27   14   37 1
    28   14   38 1
    29   15   16 1
    30   15   39 1
    31   16   21 ar
    32   16   17 ar
    33   17   18 ar
    34   17   40 1
    35   18   19 ar
    36   18   41 1
    37   19   20 ar
    38   19   42 1
    39   20   21 ar
    40   20   22 1
    41   21   43 1
    42   23   27 1
    43   23   24 2
    44   24   25 1
    45   24   44 1
    46   25   26 2
    47   25   45 1
    48   26   27 1
    49   26   46 1
@<TRIPOS>MOLECULE
CHEMBL102179
   49    53     0     0     0
SMALL
USER_CHARGES

@<TRIPOS>ATOM
      1 C1         -0.0183    1.5004    0.0103 C.3       1 <0>        -0.1393
      2 C2          0.0021   -0.0041    0.0020 C.2       1 <0>        -0.0672
      3 C3         -0.0944   -0.5641   -1.2071 C.2       1 <0>        -0.1690
      4 C4         -0.0621   -2.0542   -1.3833 C.3       1 <0>         0.2107
      5 N1          0.7609   -2.6332   -0.3157 N.pl3     1 <0>        -0.7353
      6 C5          0.5938   -2.1642    0.9887 C.ar      1 <0>         0.2216
      7 C6          0.1303   -0.8437    1.2014 C.ar      1 <0>        -0.0828
      8 C7         -0.2423   -0.4813    2.4961 C.ar      1 <0>        -0.0582
      9 C8          0.0939   -1.3323    3.5558 C.ar      1 <0>        -0.0794
     10 C9          0.7248   -2.5539    3.3358 C.ar      1 <0>        -0.0587
     11 C10         0.9672   -2.9710    2.0467 C.ar      1 <0>        -0.1734
     12 C11        -0.2270   -0.9440    4.9502 C.ar      1 <0>        -0.1203
     13 C12         0.0495   -1.8002    6.0097 C.ar      1 <0>        -0.0758
     14 C13        -0.2695   -1.4234    7.3004 C.ar      1 <0>        -0.1499
     15 C14        -0.8653   -0.1980    7.5375 C.ar      1 <0>        -0.0799
     16 C15        -1.1330    0.6637    6.4908 C.ar      1 <0>        -0.1468
     17 C16        -0.8106    0.3012    5.1901 C.ar      1 <0>         0.1404
     18 O1         -1.0424    1.1425    4.1703 O.3       1 <0>        -0.3075
     19 C17        -1.0015    0.7748    2.8040 C.3       1 <0>         0.1949
     20 C18        -2.4187    0.6234    2.3142 C.ar      1 <0>        -0.1443
     21 C19        -2.7825    1.0943    1.0613 C.ar      1 <0>        -0.0648
     22 C20        -4.0967    0.9335    0.6521 C.ar      1 <0>        -0.1353
     23 C21        -4.9958    0.3129    1.5010 C.ar      1 <0>         0.1255
     24 N2         -4.6137   -0.1227    2.6862 N.ar      1 <0>        -0.4555
     25 C22        -3.3700    0.0086    3.1053 C.ar      1 <0>         0.1354
     26 Br1        -6.7926    0.0870    0.9565 Br        1 <0>        -0.0035
     27 C23        -1.4817   -2.6148   -1.3145 C.3       1 <0>        -0.1562
     28 C24         0.5581   -2.3941   -2.7399 C.3       1 <0>        -0.1534
     29 H1          1.0043    1.8776    0.0174 H         1 <0>         0.0787
     30 H2         -0.5327    1.8617   -0.8802 H         1 <0>         0.0774
     31 H3         -0.5414    1.8517    0.8997 H         1 <0>         0.0747
     32 H4         -0.1928    0.0765   -2.0700 H         1 <0>         0.1257
     33 H5          1.4086   -3.3284   -0.5165 H         1 <0>         0.4037
     34 H6          1.0209   -3.1729    4.1688 H         1 <0>         0.1330
     35 H7          1.4470   -3.9218    1.8608 H         1 <0>         0.1302
     36 H8          0.5096   -2.7602    5.8314 H         1 <0>         0.1280
     37 H9         -0.0475   -2.0860    8.1235 H         1 <0>         0.1275
     38 H10        -1.1213    0.0837    8.5488 H         1 <0>         0.1316
     39 H11        -1.5907    1.6213    6.6848 H         1 <0>         0.1334
     40 H12        -0.5461    1.6305    2.2990 H         1 <0>         0.1305
     41 H13        -2.0588    1.5752    0.4200 H         1 <0>         0.1583
     42 H14        -4.4151    1.2884   -0.3170 H         1 <0>         0.1492
     43 H15        -3.0931   -0.3646    4.0802 H         1 <0>         0.1581
     44 H16        -2.0861   -2.1715   -2.1059 H         1 <0>         0.0677
     45 H17        -1.4517   -3.6968   -1.4431 H         1 <0>         0.0610
     46 H18        -1.9201   -2.3760   -0.3456 H         1 <0>         0.0557
     47 H19         1.5738   -2.0009   -2.7838 H         1 <0>         0.0640
     48 H20         0.5816   -3.4763   -2.8678 H         1 <0>         0.0645
     49 H21        -0.0391   -1.9472   -3.5347 H         1 <0>         0.0754
@<TRIPOS>BOND
     1    1    2 1
     2    1   29 1
     3    1   30 1
     4    1   31 1
     5    2    7 1
     6    2    3 2
     7    3    4 1
     8    3   32 1
     9    4    5 1
    10    4   27 1
    11    4   28 1
    12    5    6 1
    13    5   33 1
    14    6   11 ar
    15    6    7 ar
    16    7    8 ar
    17    8   19 1
    18    8    9 ar
    19    9   10 ar
    20    9   12 1
    21   10   11 ar
    22   10   34 1
    23   11   35 1
    24   12   17 ar
    25   12   13 ar
    26   13   14 ar
    27   13   36 1
    28   14   15 ar
    29   14   37 1
    30   15   16 ar
    31   15   38 1
    32   16   17 ar
    33   16   39 1
    34   17   18 1
    35   18   19 1
    36   19   20 1
    37   19   40 1
    38   20   25 ar
    39   20   21 ar
    40   21   22 ar
    41   21   41 1
    42   22   23 ar
    43   22   42 1
    44   23   24 ar
    45   23   26 1
    46   24   25 ar
    47   25   43 1
    48   27   44 1
    49   27   45 1
    50   27   46 1
    51   28   47 1
    52   28   48 1
    53   28   49 1
@<TRIPOS>MOLECULE
CHEMBL102179__1
   49    53     0     0     0
SMALL
USER_CHARGES

@<TRIPOS>ATOM
      1 C1         -0.4084    1.9095    0.0443 C.3       1 <0>        -0.1241
      2 C2         -0.3272    0.4214   -0.1709 C.2       1 <0>        -0.0677
      3 C3         -0.5533    0.0035   -1.4196 C.2       1 <0>        -0.1685
      4 C4         -0.4917   -1.4511   -1.7845 C.3       1 <0>         0.2107
      5 N1          0.4539   -2.1305   -0.8940 N.pl3     1 <0>        -0.7334
      6 C5          0.4451   -1.8208    0.4656 C.ar      1 <0>         0.2252
      7 C6         -0.0127   -0.5494    0.8891 C.ar      1 <0>        -0.0868
      8 C7         -0.1843   -0.3399    2.2504 C.ar      1 <0>        -0.0607
      9 C8          0.2761   -1.3059    3.1590 C.ar      1 <0>        -0.0838
     10 C9          0.8909   -2.4723    2.7199 C.ar      1 <0>        -0.0531
     11 C10         0.9670   -2.7290    1.3683 C.ar      1 <0>        -0.1772
     12 C11         0.0516   -1.0880    4.6083 C.ar      1 <0>        -0.0943
     13 C12         0.7503   -1.8010    5.5729 C.ar      1 <0>        -0.0837
     14 C13         0.5077   -1.5572    6.9120 C.ar      1 <0>        -0.1383
     15 C14        -0.4235   -0.6070    7.2918 C.ar      1 <0>        -0.0917
     16 C15        -1.1232    0.1092    6.3371 C.ar      1 <0>        -0.1361
     17 C16        -0.8901   -0.1278    4.9960 C.ar      1 <0>         0.1144
     18 O1         -1.5630    0.5421    4.0261 O.3       1 <0>        -0.3014
     19 C17        -0.8245    0.8864    2.8440 C.3       1 <0>         0.1870
     20 C18         0.2427    1.8736    3.2412 C.ar      1 <0>        -0.1601
     21 C19        -0.0044    2.8147    4.2297 C.ar      1 <0>        -0.0424
     22 C20         1.0060    3.7028    4.5626 C.ar      1 <0>        -0.1380
     23 C21         2.2191    3.6217    3.9023 C.ar      1 <0>         0.1279
     24 N2          2.4183    2.7130    2.9669 N.ar      1 <0>        -0.4578
     25 C22         1.4810    1.8487    2.6291 C.ar      1 <0>         0.1328
     26 Br1         3.6070    4.8272    4.3454 Br        1 <0>        -0.0031
     27 C23        -1.8790   -2.0793   -1.6374 C.3       1 <0>        -0.1581
     28 C24        -0.0216   -1.5962   -3.2339 C.3       1 <0>        -0.1534
     29 H1          0.5200    2.2629    0.4929 H         1 <0>         0.0697
     30 H2         -0.5618    2.4072   -0.9132 H         1 <0>         0.0732
     31 H3         -1.2422    2.1355    0.7090 H         1 <0>         0.0692
     32 H4         -0.7836    0.7379   -2.1774 H         1 <0>         0.1260
     33 H5          1.0780   -2.7882   -1.2455 H         1 <0>         0.4040
     34 H6          1.3039   -3.1715    3.4310 H         1 <0>         0.1313
     35 H7          1.4330   -3.6368    1.0113 H         1 <0>         0.1300
     36 H8          1.4815   -2.5407    5.2830 H         1 <0>         0.1275
     37 H9          1.0489   -2.1111    7.6653 H         1 <0>         0.1270
     38 H10        -0.6063   -0.4228    8.3399 H         1 <0>         0.1302
     39 H11        -1.8484    0.8494    6.6409 H         1 <0>         0.1325
     40 H12        -1.5274    1.3343    2.1539 H         1 <0>         0.1411
     41 H13        -0.9618    2.8546    4.7280 H         1 <0>         0.1504
     42 H14         0.8483    4.4489    5.3273 H         1 <0>         0.1494
     43 H15         1.6823    1.1160    1.8616 H         1 <0>         0.1649
     44 H16        -2.5802   -1.5705   -2.2988 H         1 <0>         0.0673
     45 H17        -1.8297   -3.1353   -1.9033 H         1 <0>         0.0608
     46 H18        -2.2154   -1.9798   -0.6054 H         1 <0>         0.0579
     47 H19         0.9686   -1.1533   -3.3408 H         1 <0>         0.0640
     48 H20         0.0227   -2.6530   -3.4974 H         1 <0>         0.0643
     49 H21        -0.7213   -1.0858   -3.8956 H         1 <0>         0.0754
@<TRIPOS>BOND
     1    1    2 1
     2    1   29 1
     3    1   30 1
     4    1   31 1
     5    2    7 1
     6    2    3 2
     7    3    4 1
     8    3   32 1
     9    4    5 1
    10    4   27 1
    11    4   28 1
    12    5    6 1
    13    5   33 1
    14    6   11 ar
    15    6    7 ar
    16    7    8 ar
    17    8   19 1
    18    8    9 ar
    19    9   10 ar
    20    9   12 1
    21   10   11 ar
    22   10   34 1
    23   11   35 1
    24   12   17 ar
    25   12   13 ar
    26   13   14 ar
    27   13   36 1
    28   14   15 ar
    29   14   37 1
    30   15   16 ar
    31   15   38 1
    32   16   17 ar
    33   16   39 1
    34   17   18 1
    35   18   19 1
    36   19   20 1
    37   19   40 1
    38   20   25 ar
    39   20   21 ar
    40   21   22 ar
    41   21   41 1
    42   22   23 ar
    43   22   42 1
    44   23   24 ar
    45   23   26 1
    46   24   25 ar
    47   25   43 1
    48   27   44 1
    49   27   45 1
    50   27   46 1
    51   28   47 1
    52   28   48 1
    53   28   49 1
@<TRIPOS>MOLECULE
CHEMBL280805
   33    35     0     0     0
SMALL
USER_CHARGES

@<TRIPOS>ATOM
      1 C1         -0.0187    1.5258    0.0104 C.3       1 <0>        -0.1271
      2 C2          0.0021   -0.0041    0.0020 C.3       1 <0>        -0.0188
      3 C3          0.7881   -0.5167   -1.1830 C.ar      1 <0>        -0.1152
      4 C4          0.6206   -0.3858   -2.5408 C.ar      1 <0>        -0.0532
      5 C5          1.5292   -0.9857   -3.4130 C.ar      1 <0>        -0.0530
      6 C6          2.6005   -1.7137   -2.8970 C.ar      1 <0>        -0.0763
      7 C7          2.7616   -1.8399   -1.5356 C.ar      1 <0>        -0.1177
      8 C8          1.8541   -1.2412   -0.6610 C.ar      1 <0>         0.1137
      9 N1          1.8079   -1.2293    0.7320 N.pl3     1 <0>        -0.5884
     10 C9          0.7606   -0.5310    1.2015 C.2       1 <0>         0.2678
     11 S1          0.3859   -0.2994    2.7387 S.2       1 <0>        -0.3745
     12 C10         1.3564   -0.8503   -4.8801 C.ar      1 <0>        -0.0297
     13 C11         0.2876   -0.1177   -5.3938 C.ar      1 <0>        -0.1068
     14 C12         0.1311    0.0053   -6.7594 C.ar      1 <0>        -0.1008
     15 C13         1.0324   -0.5968   -7.6188 C.ar      1 <0>        -0.1083
     16 C14         2.0958   -1.3257   -7.1148 C.ar      1 <0>        -0.0304
     17 C15         2.2650   -1.4503   -5.7494 C.ar      1 <0>        -0.1033
     18 Cl1         3.2225   -2.0783   -8.2001 Cl        1 <0>        -0.0644
     19 C16        -1.4239   -0.5582   -0.0164 C.3       1 <0>        -0.1267
     20 H1          1.0039    1.9031    0.0027 H         1 <0>         0.0598
     21 H2         -0.5459    1.8868   -0.8726 H         1 <0>         0.0750
     22 H3         -0.5289    1.8773    0.9072 H         1 <0>         0.0829
     23 H4         -0.2125    0.1798   -2.9316 H         1 <0>         0.1364
     24 H5          3.3068   -2.1801   -3.5678 H         1 <0>         0.1389
     25 H6          3.5940   -2.4050   -1.1429 H         1 <0>         0.1340
     26 H7         -0.4171    0.3527   -4.7241 H         1 <0>         0.1329
     27 H8         -0.6970    0.5726   -7.1579 H         1 <0>         0.1370
     28 H9          0.9057   -0.4982   -8.6868 H         1 <0>         0.1361
     29 H10         3.0976   -2.0151   -5.3566 H         1 <0>         0.1368
     30 H11        -1.9351   -0.2160   -0.9162 H         1 <0>         0.0748
     31 H12        -1.3905   -1.6477   -0.0096 H         1 <0>         0.0598
     32 H13        -1.9621   -0.2057    0.8635 H         1 <0>         0.0829
     33 H14         2.4578   -1.6745    1.2980 H         1 <0>         0.4256
@<TRIPOS>BOND
     1    1    2 1
     2    1   20 1
     3    1   21 1
     4    1   22 1
     5    2   10 1
     6    2    3 1
     7    2   19 1
     8    3    8 ar
     9    3    4 ar
    10    4    5 ar
    11    4   23 1
    12    5    6 ar
    13    5   12 1
    14    6    7 ar
    15    6   24 1
    16    7    8 ar
    17    7   25 1
    18    8    9 1
    19    9   10 1
    20    9   33 1
    21   10   11 2
    22   12   17 ar
    23   12   13 ar
    24   13   14 ar
    25   13   26 1
    26   14   15 ar
    27   14   27 1
    28   15   16 ar
    29   15   28 1
    30   16   17 ar
    31   16   18 1
    32   17   29 1
    33   19   30 1
    34   19   31 1
    35   19   32 1
@<TRIPOS>MOLECULE
CHEMBL1209231
   38    40     0     0     0
SMALL
USER_CHARGES

@<TRIPOS>ATOM
      1 C1         -0.3925    0.3189   -0.4006 C.3       1 <0>        -0.1771
      2 C2         -0.5354   -1.1387    0.0422 C.3       1 <0>         0.1718
      3 C3         -2.0036   -1.4319    0.3429 C.3       1 <0>        -0.1070
      4 C4         -2.4007   -0.6640    1.6092 C.3       1 <0>        -0.1201
      5 C5         -1.6964   -1.3068    2.8022 C.3       1 <0>        -0.0860
      6 C6         -0.2203   -1.4452    2.5344 C.ar      1 <0>        -0.0585
      7 C7          0.3135   -1.3718    1.2652 C.ar      1 <0>        -0.0975
      8 C8          1.6843   -1.5135    1.0805 C.ar      1 <0>        -0.1078
      9 C9          2.5213   -1.7238    2.1531 C.ar      1 <0>        -0.0945
     10 C10         1.9875   -1.7953    3.4410 C.ar      1 <0>        -0.0193
     11 C11         0.6131   -1.6548    3.6218 C.ar      1 <0>        -0.1265
     12 C12         2.8728   -2.0187    4.6030 C.2       1 <0>         0.0927
     13 C13         4.1331   -2.5732    4.5619 C.2       1 <0>        -0.1773
     14 C14         4.6241   -2.6041    5.8668 C.2       1 <0>        -0.1079
     15 C15         3.6530   -2.0663    6.6876 C.2       1 <0>         0.0544
     16 N1          2.5835   -1.7052    5.9010 N.pl3     1 <0>        -0.4149
     17 C16         1.3416   -1.0901    6.3759 C.3       1 <0>         0.0568
     18 C17         3.7449   -1.9072    8.1077 C.1       1 <0>         0.2771
     19 N2          3.8179   -1.7811    9.2344 N.1       1 <0>        -0.4039
     20 O1         -0.0904   -1.9965   -1.0105 O.3       1 <0>        -0.5526
     21 H1          0.6514    0.5266   -0.6355 H         1 <0>         0.0606
     22 H2         -1.0053    0.4915   -1.2853 H         1 <0>         0.0698
     23 H3         -0.7219    0.9768    0.4036 H         1 <0>         0.0701
     24 H4         -2.6219   -1.1056   -0.4934 H         1 <0>         0.0767
     25 H5         -2.1387   -2.5013    0.5046 H         1 <0>         0.0756
     26 H6         -2.0929    0.3777    1.5186 H         1 <0>         0.0716
     27 H7         -3.4806   -0.7175    1.7476 H         1 <0>         0.0774
     28 H8         -1.8448   -0.6849    3.6850 H         1 <0>         0.0773
     29 H9         -2.1231   -2.2935    2.9825 H         1 <0>         0.0811
     30 H10         2.0972   -1.4582    0.0841 H         1 <0>         0.1247
     31 H11         3.5846   -1.8331    1.9990 H         1 <0>         0.1333
     32 H12         0.1944   -1.7095    4.6158 H         1 <0>         0.1267
     33 H13         4.6477   -2.9216    3.6786 H         1 <0>         0.1530
     34 H14         5.5875   -2.9802    6.1782 H         1 <0>         0.1546
     35 H15         0.5884   -1.8631    6.5284 H         1 <0>         0.0852
     36 H16         1.5287   -0.5742    7.3177 H         1 <0>         0.0878
     37 H17         0.9837   -0.3753    5.6350 H         1 <0>         0.0975
     38 H18         0.8332   -1.8622   -1.2635 H         1 <0>         0.3751
@<TRIPOS>BOND
     1    1    2 1
     2    1   21 1
     3    1   22 1
     4    1   23 1
     5    2    7 1
     6    2    3 1
     7    2   20 1
     8    3    4 1
     9    3   24 1
    10    3   25 1
    11    4    5 1
    12    4   26 1
    13    4   27 1
    14    5    6 1
    15    5   28 1
    16    5   29 1
    17    6   11 ar
    18    6    7 ar
    19    7    8 ar
    20    8    9 ar
    21    8   30 1
    22    9   10 ar
    23    9   31 1
    24   10   11 ar
    25   10   12 1
    26   11   32 1
    27   12   16 1
    28   12   13 2
    29   13   14 1
    30   13   33 1
    31   14   15 2
    32   14   34 1
    33   15   16 1
    34   15   18 1
    35   16   17 1
    36   17   35 1
    37   17   36 1
    38   17   37 1
    39   18   19 3
    40   20   38 1
@<TRIPOS>MOLECULE
CHEMBL1209231__1
   38    40     0     0     0
SMALL
USER_CHARGES

@<TRIPOS>ATOM
      1 C1         -0.8051    1.3535    0.4148 C.3       1 <0>        -0.1799
      2 C2         -1.0313   -0.1394    0.6618 C.3       1 <0>         0.1725
      3 C3         -0.7892   -0.9068   -0.6361 C.3       1 <0>        -0.1075
      4 C4         -0.8070   -2.4073   -0.3214 C.3       1 <0>        -0.1194
      5 C5          0.4448   -2.7441    0.4863 C.3       1 <0>        -0.0861
      6 C6          0.5837   -1.8117    1.6615 C.ar      1 <0>        -0.0500
      7 C7         -0.0919   -0.6123    1.7409 C.ar      1 <0>        -0.1039
      8 C8          0.0821    0.2092    2.8491 C.ar      1 <0>        -0.1077
      9 C9          0.9213   -0.1614    3.8755 C.ar      1 <0>        -0.1305
     10 C10         1.6052   -1.3762    3.8030 C.ar      1 <0>        -0.0165
     11 C11         1.4297   -2.1958    2.6899 C.ar      1 <0>        -0.0980
     12 C12         2.5075   -1.7897    4.8978 C.2       1 <0>         0.0922
     13 C13         2.9094   -3.0792    5.1681 C.2       1 <0>        -0.1772
     14 C14         3.7543   -3.0352    6.2768 C.2       1 <0>        -0.1079
     15 C15         3.8558   -1.7150    6.6679 C.2       1 <0>         0.0546
     16 N1          3.0904   -0.9576    5.8114 N.pl3     1 <0>        -0.4149
     17 C16         2.9259    0.4969    5.8707 C.3       1 <0>         0.0569
     18 C17         4.6267   -1.2202    7.7686 C.1       1 <0>         0.2771
     19 N2          5.2382   -0.8277    8.6418 N.1       1 <0>        -0.4038
     20 O1         -2.3797   -0.3475    1.0867 O.3       1 <0>        -0.5499
     21 H1          0.2253    1.5176    0.0997 H         1 <0>         0.0682
     22 H2         -1.4831    1.6995   -0.3654 H         1 <0>         0.0693
     23 H3         -0.9965    1.9069    1.3341 H         1 <0>         0.0617
     24 H4         -1.5761   -0.6728   -1.3532 H         1 <0>         0.0774
     25 H5          0.1801   -0.6301   -1.0508 H         1 <0>         0.0785
     26 H6         -1.6960   -2.6499    0.2608 H         1 <0>         0.0756
     27 H7         -0.8089   -2.9774   -1.2505 H         1 <0>         0.0710
     28 H8          0.3741   -3.7700    0.8477 H         1 <0>         0.0798
     29 H9          1.3219   -2.6488   -0.1538 H         1 <0>         0.0802
     30 H10        -0.4469    1.1491    2.9051 H         1 <0>         0.1261
     31 H11         1.0501    0.4841    4.7317 H         1 <0>         0.1268
     32 H12         1.9564   -3.1366    2.6281 H         1 <0>         0.1320
     33 H13         2.6216   -3.9646    4.6207 H         1 <0>         0.1528
     34 H14         4.2399   -3.8791    6.7440 H         1 <0>         0.1546
     35 H15         2.0165    0.7375    6.4214 H         1 <0>         0.0852
     36 H16         3.7844    0.9393    6.3760 H         1 <0>         0.0876
     37 H17         2.8543    0.8960    4.8589 H         1 <0>         0.0977
     38 H18        -2.6112    0.1171    1.9026 H         1 <0>         0.3755
@<TRIPOS>BOND
     1    1    2 1
     2    1   21 1
     3    1   22 1
     4    1   23 1
     5    2    7 1
     6    2    3 1
     7    2   20 1
     8    3    4 1
     9    3   24 1
    10    3   25 1
    11    4    5 1
    12    4   26 1
    13    4   27 1
    14    5    6 1
    15    5   28 1
    16    5   29 1
    17    6   11 ar
    18    6    7 ar
    19    7    8 ar
    20    8    9 ar
    21    8   30 1
    22    9   10 ar
    23    9   31 1
    24   10   11 ar
    25   10   12 1
    26   11   32 1
    27   12   16 1
    28   12   13 2
    29   13   14 1
    30   13   33 1
    31   14   15 2
    32   14   34 1
    33   15   16 1
    34   15   18 1
    35   16   17 1
    36   17   35 1
    37   17   36 1
    38   17   37 1
    39   18   19 3
    40   20   38 1
@<TRIPOS>MOLECULE
CHEMBL286662
   48    52     0     0     0
SMALL
USER_CHARGES

@<TRIPOS>ATOM
      1 C1         -0.1507    1.2563   -0.5455 C.3       1 <0>        -0.1584
      2 C2         -0.0719   -0.2391   -0.6622 C.3       1 <0>         0.1767
      3 C3          0.7333   -0.7306   -1.8938 C.3       1 <0>        -0.1467
      4 C4          2.1224   -0.3413   -1.6852 C.2       1 <0>         0.3811
      5 O1          2.8922   -0.1972   -2.6972 O.2       1 <0>        -0.4766
      6 C5          2.7471   -0.3374   -0.3015 C.ar      1 <0>        -0.1804
      7 C6          1.9489   -0.6552    0.7878 C.ar      1 <0>         0.2477
      8 C7          2.5361   -0.7591    2.0269 C.ar      1 <0>        -0.1913
      9 C8          3.8616   -0.5430    2.1940 C.ar      1 <0>        -0.0322
     10 C9          4.6344   -0.0486    1.2087 C.ar      1 <0>        -0.0954
     11 C10         4.0173    0.2000   -0.1108 C.ar      1 <0>        -0.0324
     12 C11         4.8700    0.8630   -1.2249 C.3       1 <0>         0.2323
     13 O2          6.0804    1.2376   -0.7951 O.3       1 <0>        -0.3406
     14 C12         6.7197    0.9075    0.4149 C.ar      1 <0>         0.1438
     15 C13         5.9963    0.2568    1.3572 C.ar      1 <0>        -0.0966
     16 C14         6.6556   -0.0325    2.5486 C.ar      1 <0>        -0.0919
     17 C15         8.0250    0.2448    2.6835 C.ar      1 <0>        -0.1389
     18 C16         8.6857    0.8039    1.7227 C.ar      1 <0>        -0.0826
     19 C17         8.1187    1.1370    0.5505 C.ar      1 <0>        -0.1277
     20 C18         4.0842    2.1002   -1.5752 C.ar      1 <0>        -0.1001
     21 C19         3.8983    3.0914   -0.6297 C.ar      1 <0>        -0.0799
     22 C20         3.1777    4.2264   -0.9504 C.ar      1 <0>        -0.1174
     23 C21         2.6424    4.3704   -2.2180 C.ar      1 <0>        -0.0261
     24 C22         2.8289    3.3781   -3.1639 C.ar      1 <0>        -0.1194
     25 C23         3.5544    2.2461   -2.8437 C.ar      1 <0>        -0.0693
     26 Cl1         1.7368    5.7955   -2.6214 Cl        1 <0>        -0.0704
     27 N1          0.5414   -0.8240    0.6298 N.pl3     1 <0>        -0.7538
     28 C24        -1.4866   -0.8410   -0.7524 C.3       1 <0>        -0.1626
     29 H1          0.8504    1.6629   -0.4019 H         1 <0>         0.0624
     30 H2         -0.5833    1.6695   -1.4567 H         1 <0>         0.0752
     31 H3         -0.7764    1.5219    0.3066 H         1 <0>         0.0726
     32 H4          0.6187   -1.7457   -2.0347 H         1 <0>         0.1175
     33 H5          0.2800   -0.2281   -2.7397 H         1 <0>         0.1130
     34 H6          1.8972   -1.1384    2.8022 H         1 <0>         0.1266
     35 H7          4.2913   -0.6299    3.2174 H         1 <0>         0.1334
     36 H8          4.9145    0.1839   -2.0217 H         1 <0>         0.1144
     37 H9          6.0797   -0.4885    3.3562 H         1 <0>         0.1288
     38 H10         8.5187    0.0045    3.6804 H         1 <0>         0.1334
     39 H11         9.7302    1.0427    1.8175 H         1 <0>         0.1244
     40 H12         8.6960    1.6542   -0.2408 H         1 <0>         0.1465
     41 H13         4.3159    2.9787    0.3600 H         1 <0>         0.1253
     42 H14         3.0322    5.0005   -0.2115 H         1 <0>         0.1331
     43 H15         2.4110    3.4899   -4.1535 H         1 <0>         0.1346
     44 H16         3.7041    1.4736   -3.5834 H         1 <0>         0.1476
     45 H17         0.0193   -1.2533    1.2992 H         1 <0>         0.4072
     46 H18        -1.9962   -0.4412   -1.6291 H         1 <0>         0.0770
     47 H19        -1.4153   -1.9254   -0.8366 H         1 <0>         0.0679
     48 H20        -2.0494   -0.5824    0.1445 H         1 <0>         0.0684
@<TRIPOS>BOND
     1    1    2 1
     2    1   29 1
     3    1   30 1
     4    1   31 1
     5    2   27 1
     6    2    3 1
     7    2   28 1
     8    3    4 1
     9    3   32 1
    10    3   33 1
    11    4    5 2
    12    4    6 1
    13    6   11 ar
    14    6    7 ar
    15    7    8 ar
    16    7   27 1
    17    8    9 ar
    18    8   34 1
    19    9   10 ar
    20    9   35 1
    21   10   15 1
    22   10   11 ar
    23   11   12 1
    24   12   13 1
    25   12   20 1
    26   12   36 1
    27   13   14 1
    28   14   19 ar
    29   14   15 ar
    30   15   16 ar
    31   16   17 ar
    32   16   37 1
    33   17   18 ar
    34   17   38 1
    35   18   19 ar
    36   18   39 1
    37   19   40 1
    38   20   25 ar
    39   20   21 ar
    40   21   22 ar
    41   21   41 1
    42   22   23 ar
    43   22   42 1
    44   23   24 ar
    45   23   26 1
    46   24   25 ar
    47   24   43 1
    48   25   44 1
    49   27   45 1
    50   28   46 1
    51   28   47 1
    52   28   48 1
@<TRIPOS>MOLECULE
CHEMBL286662__1
   48    52     0     0     0
SMALL
USER_CHARGES

@<TRIPOS>ATOM
      1 C1         -0.0187    1.5258    0.0104 C.3       1 <0>        -0.1549
      2 C2          0.0021   -0.0041    0.0020 C.3       1 <0>         0.1789
      3 C3         -1.4372   -0.5385    0.0302 C.3       1 <0>        -0.1732
      4 C4         -1.3675   -2.0512    0.0963 C.2       1 <0>         0.4120
      5 O1         -2.1047   -2.7443   -0.5728 O.2       1 <0>        -0.4526
      6 C5         -0.3738   -2.6481    1.0016 C.ar      1 <0>        -0.2291
      7 C6          0.6507   -1.8371    1.5281 C.ar      1 <0>         0.2704
      8 C7          1.5957   -2.3876    2.3860 C.ar      1 <0>        -0.1949
      9 C8          1.5361   -3.7260    2.7143 C.ar      1 <0>        -0.0230
     10 C9          0.5325   -4.5344    2.1879 C.ar      1 <0>        -0.0985
     11 C10        -0.4390   -3.9954    1.3468 C.ar      1 <0>        -0.0075
     12 C11        -1.5569   -4.8745    0.8532 C.3       1 <0>         0.1569
     13 O2         -1.1128   -6.2234    0.7203 O.3       1 <0>        -0.2972
     14 C12        -0.4116   -6.7786    1.7407 C.ar      1 <0>         0.1239
     15 C13         0.4477   -5.9796    2.5054 C.ar      1 <0>        -0.1048
     16 C14         1.1918   -6.5411    3.5337 C.ar      1 <0>        -0.0812
     17 C15         1.0708   -7.8907    3.8071 C.ar      1 <0>        -0.1427
     18 C16         0.2113   -8.6774    3.0613 C.ar      1 <0>        -0.0869
     19 C17        -0.5291   -8.1264    2.0316 C.ar      1 <0>        -0.1426
     20 C18        -2.7003   -4.8220    1.8335 C.ar      1 <0>        -0.1060
     21 C19        -2.6532   -5.5766    2.9909 C.ar      1 <0>        -0.0970
     22 C20        -3.7015   -5.5289    3.8904 C.ar      1 <0>        -0.1081
     23 C21        -4.7981   -4.7258    3.6324 C.ar      1 <0>        -0.0287
     24 C22        -4.8446   -3.9708    2.4739 C.ar      1 <0>        -0.1113
     25 C23        -3.7931   -4.0150    1.5779 C.ar      1 <0>        -0.0895
     26 Cl1        -6.1154   -4.6658    4.7614 Cl        1 <0>        -0.0679
     27 N1          0.7115   -0.4929    1.1902 N.pl3     1 <0>        -0.7293
     28 C24         0.7118   -0.5003   -1.2593 C.3       1 <0>        -0.1676
     29 H1          1.0039    1.9031    0.0027 H         1 <0>         0.0693
     30 H2         -0.5459    1.8868   -0.8726 H         1 <0>         0.0798
     31 H3         -0.5289    1.8773    0.9072 H         1 <0>         0.0678
     32 H4         -1.9568   -0.1540    0.9079 H         1 <0>         0.1088
     33 H5         -1.9626   -0.2322   -0.8744 H         1 <0>         0.1083
     34 H6          2.3782   -1.7663    2.7960 H         1 <0>         0.1347
     35 H7          2.2718   -4.1488    3.3826 H         1 <0>         0.1346
     36 H8         -1.8985   -4.5114   -0.1162 H         1 <0>         0.1692
     37 H9          1.8620   -5.9269    4.1168 H         1 <0>         0.1285
     38 H10         1.6487   -8.3323    4.6055 H         1 <0>         0.1282
     39 H11         0.1172   -9.7296    3.2857 H         1 <0>         0.1313
     40 H12        -1.1977   -8.7477    1.4541 H         1 <0>         0.1344
     41 H13        -1.7973   -6.2038    3.1920 H         1 <0>         0.1368
     42 H14        -3.6648   -6.1188    4.7943 H         1 <0>         0.1350
     43 H15        -5.7004   -3.3438    2.2718 H         1 <0>         0.1363
     44 H16        -3.8272   -3.4220    0.6759 H         1 <0>         0.1401
     45 H17         1.2224    0.1230    1.7384 H         1 <0>         0.4080
     46 H18         1.7347   -0.1240   -1.2725 H         1 <0>         0.0686
     47 H19         0.7255   -1.5902   -1.2635 H         1 <0>         0.0590
     48 H20         0.1807   -0.1403   -2.1405 H         1 <0>         0.0736
@<TRIPOS>BOND
     1    1    2 1
     2    1   29 1
     3    1   30 1
     4    1   31 1
     5    2   27 1
     6    2    3 1
     7    2   28 1
     8    3    4 1
     9    3   32 1
    10    3   33 1
    11    4    5 2
    12    4    6 1
    13    6   11 ar
    14    6    7 ar
    15    7    8 ar
    16    7   27 1
    17    8    9 ar
    18    8   34 1
    19    9   10 ar
    20    9   35 1
    21   10   15 1
    22   10   11 ar
    23   11   12 1
    24   12   13 1
    25   12   20 1
    26   12   36 1
    27   13   14 1
    28   14   19 ar
    29   14   15 ar
    30   15   16 ar
    31   16   17 ar
    32   16   37 1
    33   17   18 ar
    34   17   38 1
    35   18   19 ar
    36   18   39 1
    37   19   40 1
    38   20   25 ar
    39   20   21 ar
    40   21   22 ar
    41   21   41 1
    42   22   23 ar
    43   22   42 1
    44   23   24 ar
    45   23   26 1
    46   24   25 ar
    47   24   43 1
    48   25   44 1
    49   27   45 1
    50   28   46 1
    51   28   47 1
    52   28   48 1
@<TRIPOS>MOLECULE
CHEMBL164140
   43    46     0     0     0
SMALL
USER_CHARGES

@<TRIPOS>ATOM
      1 C1         -0.0187    1.5258    0.0104 C.3       1 <0>        -0.1746
      2 C2          0.0021   -0.0041    0.0020 C.3       1 <0>         0.1628
      3 C3         -1.4124   -0.5224   -0.0058 C.ar      1 <0>        -0.1777
      4 C4         -2.1324   -0.5284   -1.1832 C.ar      1 <0>        -0.0448
      5 C5         -3.4420   -1.0040   -1.1969 C.ar      1 <0>        -0.1085
      6 C6         -4.0256   -1.4736   -0.0211 C.ar      1 <0>        -0.0521
      7 C7         -3.3037   -1.4672    1.1536 C.ar      1 <0>        -0.1813
      8 C8         -1.9977   -0.9939    1.1632 C.ar      1 <0>         0.2324
      9 N1         -1.2610   -0.9936    2.3534 N.pl3     1 <0>        -0.7517
     10 C9         -0.0051   -0.2277    2.3869 C.3       1 <0>         0.4053
     11 O1          0.6933   -0.4743    1.1600 O.3       1 <0>        -0.3652
     12 C10         0.8366   -0.6792    3.5525 C.2       1 <0>        -0.1720
     13 C11         0.4413   -1.0948    4.7807 C.2       1 <0>        -0.1367
     14 C12         1.4009   -1.4668    5.7035 C.2       1 <0>        -0.1623
     15 C13         2.7088   -1.4050    5.3530 C.2       1 <0>        -0.1730
     16 S1          2.6129   -0.8130    3.6715 S.3       1 <0>         0.1026
     17 C14        -4.2157   -1.0103   -2.4629 C.ar      1 <0>         0.0071
     18 C15        -5.5253   -1.4797   -2.4763 C.ar      1 <0>        -0.0830
     19 C16        -6.2472   -1.4831   -3.6690 C.ar      1 <0>         0.0137
     20 C17        -5.6521   -1.0155   -4.8431 C.ar      1 <0>        -0.1166
     21 C18        -4.3503   -0.5510   -4.8224 C.ar      1 <0>         0.1131
     22 C19        -3.6331   -0.5405   -3.6390 C.ar      1 <0>        -0.1286
     23 F1         -3.7783   -0.1001   -5.9602 F         1 <0>        -0.1297
     24 C20        -7.5955   -1.9652   -3.6905 C.1       1 <0>         0.2497
     25 N2         -8.6650   -2.3477   -3.7075 N.1       1 <0>        -0.3988
     26 C21         0.7253   -0.4943   -1.2540 C.3       1 <0>        -0.1369
     27 H1          1.0039    1.9031    0.0027 H         1 <0>         0.0721
     28 H2         -0.5459    1.8868   -0.8726 H         1 <0>         0.0749
     29 H3         -0.5289    1.8773    0.9072 H         1 <0>         0.0586
     30 H4         -1.6808   -0.1641   -2.0941 H         1 <0>         0.1310
     31 H5         -5.0410   -1.8412   -0.0302 H         1 <0>         0.1303
     32 H6         -3.7534   -1.8303    2.0660 H         1 <0>         0.1288
     33 H7         -1.5690   -1.4831    3.1322 H         1 <0>         0.4091
     34 H8         -0.2242    0.8361    2.4794 H         1 <0>         0.0923
     35 H9         -0.6077   -1.1343    5.0345 H         1 <0>         0.1326
     36 H10         1.1128   -1.8013    6.6891 H         1 <0>         0.1375
     37 H11         3.5821   -1.6534    5.9378 H         1 <0>         0.1893
     38 H12        -5.9810   -1.8405   -1.5661 H         1 <0>         0.1425
     39 H13        -6.2096   -1.0173   -5.7681 H         1 <0>         0.1469
     40 H14        -2.6180   -0.1720   -3.6275 H         1 <0>         0.1451
     41 H15         1.7475   -0.1159   -1.2557 H         1 <0>         0.0706
     42 H16         0.7412   -1.5841   -1.2620 H         1 <0>         0.0683
     43 H17         0.2023   -0.1320   -2.1391 H         1 <0>         0.0769
@<TRIPOS>BOND
     1    1    2 1
     2    1   27 1
     3    1   28 1
     4    1   29 1
     5    2   11 1
     6    2    3 1
     7    2   26 1
     8    3    8 ar
     9    3    4 ar
    10    4    5 ar
    11    4   30 1
    12    5    6 ar
    13    5   17 1
    14    6    7 ar
    15    6   31 1
    16    7    8 ar
    17    7   32 1
    18    8    9 1
    19    9   10 1
    20    9   33 1
    21   10   11 1
    22   10   12 1
    23   10   34 1
    24   12   16 1
    25   12   13 2
    26   13   14 1
    27   13   35 1
    28   14   15 2
    29   14   36 1
    30   15   16 1
    31   15   37 1
    32   17   22 ar
    33   17   18 ar
    34   18   19 ar
    35   18   38 1
    36   19   20 ar
    37   19   24 1
    38   20   21 ar
    39   20   39 1
    40   21   22 ar
    41   21   23 1
    42   22   40 1
    43   24   25 3
    44   26   41 1
    45   26   42 1
    46   26   43 1
@<TRIPOS>MOLECULE
CHEMBL164140__1
   43    46     0     0     0
SMALL
USER_CHARGES

@<TRIPOS>ATOM
      1 C1         -0.0187    1.5258    0.0104 C.3       1 <0>        -0.1746
      2 C2          0.0021   -0.0041    0.0020 C.3       1 <0>         0.1630
      3 C3          0.6915   -0.4870   -1.2474 C.ar      1 <0>        -0.1778
      4 C4          0.0090   -0.4924   -2.4469 C.ar      1 <0>        -0.0448
      5 C5          0.6415   -0.9354   -3.6067 C.ar      1 <0>        -0.1086
      6 C6          1.9643   -1.3729   -3.5558 C.ar      1 <0>        -0.0521
      7 C7          2.6435   -1.3672   -2.3559 C.ar      1 <0>        -0.1812
      8 C8          2.0091   -0.9265   -1.2014 C.ar      1 <0>         0.2324
      9 N1          2.6949   -0.9272    0.0190 N.pl3     1 <0>        -0.7516
     10 C9          2.0984   -0.1923    1.1456 C.3       1 <0>         0.4053
     11 O1          0.6933   -0.4743    1.1600 O.3       1 <0>        -0.3655
     12 C10         2.7232   -0.6475    2.4392 C.2       1 <0>        -0.1724
     13 C11         4.0203   -0.9371    2.7053 C.2       1 <0>        -0.1366
     14 C12         4.3692   -1.3402    3.9806 C.2       1 <0>        -0.1627
     15 C13         3.4039   -1.4340    4.9275 C.2       1 <0>        -0.1734
     16 S1          1.9481   -0.9376    4.0211 S.3       1 <0>         0.1032
     17 C14        -0.0928   -0.9419   -4.8958 C.ar      1 <0>         0.0072
     18 C15         0.5361   -1.3893   -6.0533 C.ar      1 <0>        -0.0831
     19 C16        -0.1591   -1.3930   -7.2618 C.ar      1 <0>         0.0136
     20 C17        -1.4825   -0.9478   -7.3037 C.ar      1 <0>        -0.1166
     21 C18        -2.1009   -0.5041   -6.1497 C.ar      1 <0>         0.1130
     22 C19        -1.4157   -0.5050   -4.9476 C.ar      1 <0>        -0.1286
     23 F1         -3.3808   -0.0739   -6.1947 F         1 <0>        -0.1297
     24 C20         0.4820   -1.8517   -8.4572 C.1       1 <0>         0.2497
     25 N2          0.9906   -2.2156   -9.4056 N.1       1 <0>        -0.3988
     26 C21        -1.4344   -0.5306    0.0205 C.3       1 <0>        -0.1369
     27 H1          1.0039    1.9031    0.0027 H         1 <0>         0.0585
     28 H2         -0.5459    1.8868   -0.8726 H         1 <0>         0.0748
     29 H3         -0.5289    1.8773    0.9072 H         1 <0>         0.0721
     30 H4         -1.0157   -0.1536   -2.4866 H         1 <0>         0.1310
     31 H5          2.4558   -1.7159   -4.4543 H         1 <0>         0.1303
     32 H6          3.6682   -1.7056   -2.3137 H         1 <0>         0.1288
     33 H7          3.5371   -1.3978    0.1189 H         1 <0>         0.4093
     34 H8          2.2587    0.8778    1.0142 H         1 <0>         0.0925
     35 H9          4.7700   -0.8545    1.9323 H         1 <0>         0.1332
     36 H10         5.3956   -1.5773    4.2189 H         1 <0>         0.1375
     37 H11         3.4930   -1.7287    5.9627 H         1 <0>         0.1892
     38 H12         1.5595   -1.7323   -6.0160 H         1 <0>         0.1425
     39 H13        -2.0229   -0.9498   -8.2388 H         1 <0>         0.1469
     40 H14        -1.9053   -0.1618   -4.0481 H         1 <0>         0.1451
     41 H15        -1.9654   -0.1685   -0.8599 H         1 <0>         0.0769
     42 H16        -1.4219   -1.6205    0.0145 H         1 <0>         0.0683
     43 H17        -1.9391   -0.1779    0.9199 H         1 <0>         0.0706
@<TRIPOS>BOND
     1    1    2 1
     2    1   27 1
     3    1   28 1
     4    1   29 1
     5    2   11 1
     6    2    3 1
     7    2   26 1
     8    3    8 ar
     9    3    4 ar
    10    4    5 ar
    11    4   30 1
    12    5    6 ar
    13    5   17 1
    14    6    7 ar
    15    6   31 1
    16    7    8 ar
    17    7   32 1
    18    8    9 1
    19    9   10 1
    20    9   33 1
    21   10   11 1
    22   10   12 1
    23   10   34 1
    24   12   16 1
    25   12   13 2
    26   13   14 1
    27   13   35 1
    28   14   15 2
    29   14   36 1
    30   15   16 1
    31   15   37 1
    32   17   22 ar
    33   17   18 ar
    34   18   19 ar
    35   18   38 1
    36   19   20 ar
    37   19   24 1
    38   20   21 ar
    39   20   39 1
    40   21   22 ar
    41   21   23 1
    42   22   40 1
    43   24   25 3
    44   26   41 1
    45   26   42 1
    46   26   43 1
@<TRIPOS>MOLECULE
CHEMBL1209237
   33    35     0     0     0
SMALL
USER_CHARGES

@<TRIPOS>ATOM
      1 C1          1.3038   -2.9680    1.4337 C.3       1 <0>         0.0533
      2 N1          0.5945   -1.9667    0.6334 N.pl3     1 <0>        -0.4127
      3 C2          0.4551   -1.9843   -0.7337 C.2       1 <0>         0.0640
      4 C3         -0.2760   -0.8727   -1.1037 C.2       1 <0>        -0.1106
      5 C4         -0.5852   -0.1689    0.0593 C.2       1 <0>        -0.1659
      6 C5         -0.0448   -0.8613    1.1220 C.2       1 <0>         0.0778
      7 C6         -0.1377   -0.4740    2.5431 C.ar      1 <0>         0.0141
      8 C7         -0.4073    0.8534    2.8898 C.ar      1 <0>        -0.1031
      9 C8         -0.4933    1.2118    4.2051 C.ar      1 <0>        -0.0478
     10 C9         -0.3113    0.2514    5.2047 C.ar      1 <0>        -0.1572
     11 C10        -0.0414   -1.0759    4.8581 C.ar      1 <0>        -0.0634
     12 C11         0.0380   -1.4357    3.5428 C.ar      1 <0>        -0.1331
     13 C12        -0.4039    0.6391    6.6269 C.2       1 <0>         0.4794
     14 O1         -0.7657    1.7616    6.9297 O.2       1 <0>        -0.4387
     15 C13        -0.0605   -0.3264    7.6727 C.2       1 <0>        -0.2846
     16 C14         0.0075   -0.1407    9.0477 C.2       1 <0>        -0.0594
     17 C15         0.3605   -1.2464    9.7813 C.2       1 <0>        -0.1888
     18 C16         0.6126   -2.4135    9.1362 C.2       1 <0>        -0.2319
     19 S1          0.3718   -2.0486    7.5141 S.3       1 <0>         0.2198
     20 C17         0.9771   -2.9809   -1.6197 C.1       1 <0>         0.2752
     21 N2          1.3911   -3.7715   -2.3226 N.1       1 <0>        -0.3997
     22 H1          0.5925   -3.7042    1.8080 H         1 <0>         0.0877
     23 H2          2.0500   -3.4658    0.8145 H         1 <0>         0.0895
     24 H3          1.7966   -2.4789    2.2739 H         1 <0>         0.0994
     25 H4         -0.5563   -0.5985   -2.1100 H         1 <0>         0.1561
     26 H5         -1.1490    0.7503    0.1175 H         1 <0>         0.1558
     27 H6         -0.5471    1.5955    2.1177 H         1 <0>         0.1426
     28 H7         -0.7015    2.2372    4.4728 H         1 <0>         0.1442
     29 H8          0.0995   -1.8177    5.6303 H         1 <0>         0.1258
     30 H9          0.2418   -2.4620    3.2750 H         1 <0>         0.1360
     31 H10        -0.2034    0.8123    9.5101 H         1 <0>         0.1503
     32 H11         0.4369   -1.1880   10.8570 H         1 <0>         0.1380
     33 H12         0.8987   -3.3615    9.5674 H         1 <0>         0.1877
@<TRIPOS>BOND
     1    1    2 1
     2    1   22 1
     3    1   23 1
     4    1   24 1
     5    2    6 1
     6    2    3 1
     7    3    4 2
     8    3   20 1
     9    4    5 1
    10    4   25 1
    11    5    6 2
    12    5   26 1
    13    6    7 1
    14    7   12 ar
    15    7    8 ar
    16    8    9 ar
    17    8   27 1
    18    9   10 ar
    19    9   28 1
    20   10   11 ar
    21   10   13 1
    22   11   12 ar
    23   11   29 1
    24   12   30 1
    25   13   14 2
    26   13   15 1
    27   15   19 1
    28   15   16 2
    29   16   17 1
    30   16   31 1
    31   17   18 2
    32   17   32 1
    33   18   19 1
    34   18   33 1
    35   20   21 3
@<TRIPOS>MOLECULE
CHEMBL280767
   38    41     0     0     0
SMALL
USER_CHARGES

@<TRIPOS>ATOM
      1 C1         -0.0168    1.3890    0.0097 C.ar      1 <0>        -0.0760
      2 C2          1.1638    2.0986    0.0022 C.ar      1 <0>        -0.1153
      3 C3          2.3869    1.4295   -0.0134 C.ar      1 <0>         0.1093
      4 C4          2.3983    0.0378   -0.0212 C.ar      1 <0>        -0.1039
      5 C5          1.2240   -0.6764   -0.0136 C.ar      1 <0>        -0.0665
      6 C6          0.0021   -0.0041    0.0020 C.ar      1 <0>        -0.0211
      7 C7         -1.2707   -0.7683    0.0109 C.2       1 <0>        -0.1416
      8 C8         -2.5782   -0.2292    0.0214 C.2       1 <0>        -0.1076
      9 C9         -3.4370   -1.2881    0.0268 C.2       1 <0>         0.0459
     10 O1         -2.7102   -2.4240    0.0201 O.3       1 <0>        -0.1474
     11 C10        -1.4044   -2.1235    0.0045 C.2       1 <0>         0.0240
     12 C11        -4.8667   -1.2077    0.0382 C.1       1 <0>         0.2839
     13 N1         -6.0009   -1.1440    0.0473 N.1       1 <0>        -0.3686
     14 C12         3.8502   -0.3696   -0.0376 C.3       1 <0>        -0.0104
     15 C13         4.1677   -1.1660   -1.2994 C.3       1 <0>        -0.0929
     16 C14         3.3726   -2.4739   -1.2944 C.3       1 <0>        -0.1252
     17 C15         3.7406   -3.2884   -0.0525 C.3       1 <0>        -0.1238
     18 C16         3.3956   -2.4873    1.2045 C.3       1 <0>        -0.1253
     19 C17         4.1916   -1.1799    1.2090 C.3       1 <0>        -0.0928
     20 C18         4.6078    0.9369   -0.0377 C.2       1 <0>         0.2677
     21 N2          3.6925    1.9219   -0.0235 N.pl3     1 <0>        -0.5893
     22 S1          6.1968    1.1151   -0.0523 S.2       1 <0>        -0.3750
     23 H1         -0.9603    1.9144    0.0260 H         1 <0>         0.1380
     24 H2          1.1419    3.1784    0.0082 H         1 <0>         0.1333
     25 H3          1.2474   -1.7561   -0.0197 H         1 <0>         0.1407
     26 H4         -2.8444    0.8174    0.0249 H         1 <0>         0.1674
     27 H5         -0.5936   -2.8368   -0.0083 H         1 <0>         0.2190
     28 H6          3.8960   -0.5793   -2.1769 H         1 <0>         0.0657
     29 H7          5.2342   -1.3896   -1.3287 H         1 <0>         0.0889
     30 H8          2.3058   -2.2506   -1.2796 H         1 <0>         0.0685
     31 H9          3.6116   -3.0479   -2.1896 H         1 <0>         0.0727
     32 H10         3.1806   -4.2236   -0.0524 H         1 <0>         0.0674
     33 H11         4.8089   -3.5049   -0.0635 H         1 <0>         0.0693
     34 H12         2.3288   -2.2634    1.2115 H         1 <0>         0.0685
     35 H13         3.6505   -3.0711    2.0890 H         1 <0>         0.0727
     36 H14         5.2582   -1.4043    1.2153 H         1 <0>         0.0889
     37 H15         3.9371   -0.6029    2.0980 H         1 <0>         0.0657
     38 H16         3.9143    2.8662   -0.0212 H         1 <0>         0.4253
@<TRIPOS>BOND
     1    1    6 ar
     2    1    2 ar
     3    1   23 1
     4    2    3 ar
     5    2   24 1
     6    3   21 1
     7    3    4 ar
     8    4    5 ar
     9    4   14 1
    10    5    6 ar
    11    5   25 1
    12    6    7 1
    13    7   11 2
    14    7    8 1
    15    8    9 2
    16    8   26 1
    17    9   10 1
    18    9   12 1
    19   10   11 1
    20   11   27 1
    21   12   13 3
    22   14   19 1
    23   14   15 1
    24   14   20 1
    25   15   16 1
    26   15   28 1
    27   15   29 1
    28   16   17 1
    29   16   30 1
    30   16   31 1
    31   17   18 1
    32   17   32 1
    33   17   33 1
    34   18   19 1
    35   18   34 1
    36   18   35 1
    37   19   36 1
    38   19   37 1
    39   20   21 1
    40   20   22 2
    41   21   38 1
@<TRIPOS>MOLECULE
CHEMBL541973
   50    51     0     0     0
SMALL
USER_CHARGES

@<TRIPOS>ATOM
      1 C1         -0.8157    1.4051    0.6771 C.3       1 <0>        -0.1559
      2 C2         -0.9384   -0.1094    0.4977 C.3       1 <0>        -0.1014
      3 C3         -0.6272   -0.8069    1.8234 C.3       1 <0>        -0.1483
      4 C4         -2.3627   -0.4574    0.0604 C.3       1 <0>        -0.1258
      5 C5         -2.6310    0.1373   -1.3236 C.3       1 <0>         0.2329
      6 C6         -4.0705   -0.0994   -1.7016 C.2       1 <0>         0.1642
      7 N1         -4.6006   -1.2323   -2.0935 N.2       1 <0>        -0.2889
      8 N2         -5.8519   -1.0279   -2.3225 N.2       1 <0>        -0.0703
      9 N3         -6.1338    0.2059   -2.0869 N.2       1 <0>        -0.0871
     10 N4         -5.0626    0.8101   -1.6967 N.pl3     1 <0>        -0.3023
     11 C7         -4.9472    2.2217   -1.3222 C.3       1 <0>         0.0707
     12 N5         -1.7558   -0.5034   -2.3083 N.pl3     1 <0>        -0.5939
     13 C8         -1.7582   -1.9614   -2.4516 C.3       1 <0>         0.1089
     14 C9         -0.6852   -2.5649   -1.5431 C.3       1 <0>        -0.1244
     15 C10        -0.7641   -4.0916   -1.6051 C.3       1 <0>        -0.1478
     16 C11         0.6971   -2.1062   -2.0120 C.3       1 <0>        -0.1524
     17 C12        -0.9220    0.2731   -3.1078 C.ar      1 <0>         0.2619
     18 C13        -0.8208    1.6430   -2.8807 C.ar      1 <0>        -0.2075
     19 C14         0.0022    2.4145   -3.6686 C.ar      1 <0>        -0.0046
     20 C15         0.7382    1.8214   -4.6992 C.ar      1 <0>        -0.0821
     21 C16         0.6346    0.4444   -4.9253 C.ar      1 <0>         0.0572
     22 C17        -0.1876   -0.3225   -4.1281 C.ar      1 <0>        -0.1839
     23 Cl1         1.5452   -0.2978   -6.2034 Cl        1 <0>        -0.0464
     24 C18         1.5954    2.6213   -5.5215 C.1       1 <0>         0.2531
     25 N6          2.2753    3.2558   -6.1738 N.1       1 <0>        -0.4097
     26 H1          0.1990    1.6530    0.9886 H         1 <0>         0.0622
     27 H2         -1.0374    1.9020   -0.2673 H         1 <0>         0.0529
     28 H3         -1.5212    1.7392    1.4379 H         1 <0>         0.0565
     29 H4         -0.2329   -0.4435   -0.2631 H         1 <0>         0.0893
     30 H5         -1.3326   -0.4728    2.5841 H         1 <0>         0.0553
     31 H6         -0.7146   -1.8858    1.6955 H         1 <0>         0.0566
     32 H7          0.3875   -0.5590    2.1349 H         1 <0>         0.0593
     33 H8         -2.4755   -1.5407    0.0185 H         1 <0>         0.0880
     34 H9         -3.0736   -0.0455    0.7768 H         1 <0>         0.0784
     35 H10        -2.4321    1.2088   -1.3034 H         1 <0>         0.1180
     36 H11        -4.7024    2.8129   -2.2046 H         1 <0>         0.1025
     37 H12        -5.8939    2.5657   -0.9056 H         1 <0>         0.1134
     38 H13        -4.1594    2.3369   -0.5777 H         1 <0>         0.1051
     39 H14        -2.7355   -2.3526   -2.1691 H         1 <0>         0.1067
     40 H15        -1.5470   -2.2250   -3.4879 H         1 <0>         0.0807
     41 H16        -0.8492   -2.2339   -0.5176 H         1 <0>         0.0863
     42 H17        -0.6000   -4.4225   -2.6306 H         1 <0>         0.0567
     43 H18         0.0003   -4.5215   -0.9579 H         1 <0>         0.0588
     44 H19        -1.7488   -4.4184   -1.2710 H         1 <0>         0.0577
     45 H20         0.7748   -1.0238   -1.9097 H         1 <0>         0.0586
     46 H21         1.4645   -2.5847   -1.4036 H         1 <0>         0.0550
     47 H22         0.8367   -2.3834   -3.0569 H         1 <0>         0.0574
     48 H23        -1.3896    2.1009   -2.0849 H         1 <0>         0.1357
     49 H24         0.0795    3.4770   -3.4915 H         1 <0>         0.1429
     50 H25        -0.2652   -1.3861   -4.2985 H         1 <0>         0.1498
@<TRIPOS>BOND
     1    1    2 1
     2    1   26 1
     3    1   27 1
     4    1   28 1
     5    2    3 1
     6    2    4 1
     7    2   29 1
     8    3   30 1
     9    3   31 1
    10    3   32 1
    11    4    5 1
    12    4   33 1
    13    4   34 1
    14    5    6 1
    15    5   12 1
    16    5   35 1
    17    6   10 1
    18    6    7 2
    19    7    8 1
    20    8    9 2
    21    9   10 1
    22   10   11 1
    23   11   36 1
    24   11   37 1
    25   11   38 1
    26   12   13 1
    27   12   17 1
    28   13   14 1
    29   13   39 1
    30   13   40 1
    31   14   15 1
    32   14   16 1
    33   14   41 1
    34   15   42 1
    35   15   43 1
    36   15   44 1
    37   16   45 1
    38   16   46 1
    39   16   47 1
    40   17   22 ar
    41   17   18 ar
    42   18   19 ar
    43   18   48 1
    44   19   20 ar
    45   19   49 1
    46   20   21 ar
    47   20   24 1
    48   21   22 ar
    49   21   23 1
    50   22   50 1
    51   24   25 3
@<TRIPOS>MOLECULE
CHEMBL541973__1
   50    51     0     0     0
SMALL
USER_CHARGES

@<TRIPOS>ATOM
      1 C1         -3.6780   -2.8632   -1.1644 C.3       1 <0>        -0.1606
      2 C2         -3.0053   -2.5088   -2.4921 C.3       1 <0>        -0.1010
      3 C3         -3.6362   -3.3296   -3.6186 C.3       1 <0>        -0.1471
      4 C4         -3.1963   -1.0181   -2.7786 C.3       1 <0>        -0.1452
      5 C5         -2.4383   -0.1967   -1.7338 C.3       1 <0>         0.2407
      6 C6         -0.9586   -0.4438   -1.8773 C.2       1 <0>         0.1604
      7 N1         -0.1326    0.1915   -2.6723 N.2       1 <0>        -0.2785
      8 N2          1.0433   -0.3079   -2.5057 N.2       1 <0>        -0.0723
      9 N3          0.9889   -1.2453   -1.6249 N.2       1 <0>        -0.0893
     10 N4         -0.2277   -1.3558   -1.2098 N.pl3     1 <0>        -0.3017
     11 C7         -0.7214   -2.2991   -0.2035 C.3       1 <0>         0.0680
     12 N5         -2.7174    1.2273   -1.9356 N.pl3     1 <0>        -0.6049
     13 C8         -3.2438    2.0342   -0.8320 C.3       1 <0>         0.1219
     14 C9         -2.0901    2.7546   -0.1314 C.3       1 <0>        -0.1182
     15 C10        -2.6511    3.7118    0.9221 C.3       1 <0>        -0.1467
     16 C11        -1.1826    1.7258    0.5459 C.3       1 <0>        -0.1463
     17 C12        -2.4825    1.8135   -3.1760 C.ar      1 <0>         0.2546
     18 C13        -1.8726    1.0768   -4.1879 C.ar      1 <0>        -0.1546
     19 C14        -1.6384    1.6523   -5.4156 C.ar      1 <0>        -0.0174
     20 C15        -2.0137    2.9794   -5.6472 C.ar      1 <0>        -0.0735
     21 C16        -2.6264    3.7174   -4.6285 C.ar      1 <0>         0.0481
     22 C17        -2.8627    3.1321   -3.4032 C.ar      1 <0>        -0.1834
     23 Cl1        -3.0940    5.3655   -4.9094 Cl        1 <0>        -0.0534
     24 C18        -1.7711    3.5817   -6.9235 C.1       1 <0>         0.2559
     25 N6         -1.5786    4.0595   -7.9360 N.1       1 <0>        -0.4144
     26 H1         -3.6243   -3.9403   -1.0060 H         1 <0>         0.0641
     27 H2         -3.1669   -2.3502   -0.3498 H         1 <0>         0.0513
     28 H3         -4.7222   -2.5516   -1.1916 H         1 <0>         0.0658
     29 H4         -1.9405   -2.7336   -2.4312 H         1 <0>         0.0631
     30 H5         -4.7010   -3.1048   -3.6795 H         1 <0>         0.0612
     31 H6         -3.1569   -3.0771   -4.5645 H         1 <0>         0.0575
     32 H7         -3.5002   -4.3916   -3.4144 H         1 <0>         0.0593
     33 H8         -2.8113   -0.7868   -3.7718 H         1 <0>         0.0955
     34 H9         -4.2573   -0.7725   -2.7340 H         1 <0>         0.0951
     35 H10        -2.7608   -0.4922   -0.7354 H         1 <0>         0.1155
     36 H11        -1.0304   -3.2231   -0.6923 H         1 <0>         0.1040
     37 H12         0.0716   -2.5146    0.5126 H         1 <0>         0.1113
     38 H13        -1.5728   -1.8616    0.3179 H         1 <0>         0.1043
     39 H14        -3.9474    2.7693   -1.2227 H         1 <0>         0.0879
     40 H15        -3.7538    1.3861   -0.1192 H         1 <0>         0.0832
     41 H16        -1.5149    3.3189   -0.8655 H         1 <0>         0.0797
     42 H17        -3.2263    3.1474    1.6562 H         1 <0>         0.0565
     43 H18        -1.8292    4.2250    1.4212 H         1 <0>         0.0595
     44 H19        -3.2976    4.4447    0.4395 H         1 <0>         0.0594
     45 H20        -0.6842    1.1244   -0.2144 H         1 <0>         0.0469
     46 H21        -0.4352    2.2416    1.1488 H         1 <0>         0.0572
     47 H22        -1.7818    1.0783    1.1860 H         1 <0>         0.0511
     48 H23        -1.5826    0.0520   -4.0087 H         1 <0>         0.1477
     49 H24        -1.1650    1.0798   -6.1995 H         1 <0>         0.1390
     50 H25        -3.3395    3.6991   -2.6174 H         1 <0>         0.1425
@<TRIPOS>BOND
     1    1    2 1
     2    1   26 1
     3    1   27 1
     4    1   28 1
     5    2    3 1
     6    2    4 1
     7    2   29 1
     8    3   30 1
     9    3   31 1
    10    3   32 1
    11    4    5 1
    12    4   33 1
    13    4   34 1
    14    5    6 1
    15    5   12 1
    16    5   35 1
    17    6   10 1
    18    6    7 2
    19    7    8 1
    20    8    9 2
    21    9   10 1
    22   10   11 1
    23   11   36 1
    24   11   37 1
    25   11   38 1
    26   12   13 1
    27   12   17 1
    28   13   14 1
    29   13   39 1
    30   13   40 1
    31   14   15 1
    32   14   16 1
    33   14   41 1
    34   15   42 1
    35   15   43 1
    36   15   44 1
    37   16   45 1
    38   16   46 1
    39   16   47 1
    40   17   22 ar
    41   17   18 ar
    42   18   19 ar
    43   18   48 1
    44   19   20 ar
    45   19   49 1
    46   20   21 ar
    47   20   24 1
    48   21   22 ar
    49   21   23 1
    50   22   50 1
    51   24   25 3
@<TRIPOS>MOLECULE
CHEMBL81591
   54    58     0     0     0
SMALL
USER_CHARGES

@<TRIPOS>ATOM
      1 C1          0.1002    1.5944   -0.0350 C.3       1 <0>        -0.1499
      2 C2          0.0494    0.0657    0.0013 C.3       1 <0>        -0.0119
      3 C3         -1.4265   -0.3639   -0.0229 C.3       1 <0>        -0.0345
      4 C4         -1.9264   -1.1700    1.1540 C.2       1 <0>        -0.2166
      5 C5         -3.1803   -1.6862    1.4702 C.2       1 <0>         0.0700
      6 N1         -3.0971   -2.3121    2.6177 N.2       1 <0>        -0.2799
      7 N2         -1.7807   -2.2222    3.0858 N.pl3     1 <0>        -0.3215
      8 C6         -1.0555   -1.5133    2.1642 C.2       1 <0>         0.1195
      9 C7          0.3617   -1.1346    2.1286 C.2       1 <0>        -0.1258
     10 C8          0.8925   -0.4055    1.1666 C.2       1 <0>        -0.0474
     11 C9          2.3646   -0.0676    1.1725 C.3       1 <0>        -0.0839
     12 C10         2.9710   -0.5388   -0.1549 C.3       1 <0>        -0.1124
     13 C11         2.1694    0.0477   -1.3178 C.3       1 <0>        -0.1361
     14 C12         0.7259   -0.4565   -1.2667 C.3       1 <0>        -0.1024
     15 H1          0.7217   -1.5465   -1.2584 H         1 <0>         0.0825
     16 C13        -0.0344    0.0475   -2.4951 C.3       1 <0>         0.1485
     17 H2         -1.0893   -0.2101   -2.4004 H         1 <0>         0.1131
     18 C14         0.5307   -0.5965   -3.7348 C.ar      1 <0>        -0.1135
     19 C15         1.6980   -0.1118   -4.2947 C.ar      1 <0>        -0.1135
     20 C16         2.2164   -0.7026   -5.4318 C.ar      1 <0>        -0.1172
     21 C17         1.5678   -1.7783   -6.0089 C.ar      1 <0>        -0.1194
     22 C18         0.4010   -2.2636   -5.4485 C.ar      1 <0>        -0.1164
     23 C19        -0.1151   -1.6755   -4.3089 C.ar      1 <0>        -0.1106
     24 O1          0.1026    1.4667   -2.5909 O.3       1 <0>        -0.5453
     25 C20        -1.2918   -2.7615    4.2832 C.ar      1 <0>         0.1484
     26 C21         0.0047   -3.2548    4.3451 C.ar      1 <0>        -0.1050
     27 C22         0.4849   -3.7854    5.5262 C.ar      1 <0>        -0.1304
     28 C23        -0.3257   -3.8257    6.6484 C.ar      1 <0>         0.0972
     29 C24        -1.6192   -3.3346    6.5885 C.ar      1 <0>        -0.1318
     30 C25        -2.1012   -2.7979    5.4109 C.ar      1 <0>        -0.0830
     31 F1          0.1458   -4.3452    7.8029 F         1 <0>        -0.1333
     32 H3          1.1100    1.9185   -0.2867 H         1 <0>         0.0607
     33 H4         -0.5978    1.9633   -0.7865 H         1 <0>         0.0887
     34 H5         -0.1755    1.9904    0.9424 H         1 <0>         0.0473
     35 H6         -2.0369    0.5361   -0.0970 H         1 <0>         0.0779
     36 H7         -1.5903   -0.9516   -0.9262 H         1 <0>         0.0722
     37 H8         -4.0724   -1.5867    0.8697 H         1 <0>         0.1905
     38 H9          0.9975   -1.4515    2.9421 H         1 <0>         0.1177
     39 H10         2.4940    1.0100    1.2737 H         1 <0>         0.0838
     40 H11         2.8553   -0.5767    2.0021 H         1 <0>         0.0748
     41 H12         4.0059   -0.2032   -0.2211 H         1 <0>         0.0710
     42 H13         2.9381   -1.6273   -0.2033 H         1 <0>         0.0651
     43 H14         2.1751    1.1355   -1.2487 H         1 <0>         0.0745
     44 H15         2.6251   -0.2554   -2.2604 H         1 <0>         0.0763
     45 H16         2.2048    0.7286   -3.8438 H         1 <0>         0.1209
     46 H17         3.1280   -0.3235   -5.8696 H         1 <0>         0.1228
     47 H18         1.9724   -2.2394   -6.8977 H         1 <0>         0.1221
     48 H19        -0.1060   -3.1038   -5.8995 H         1 <0>         0.1231
     49 H20        -1.0247   -2.0570   -3.8689 H         1 <0>         0.1224
     50 H21         1.0171    1.7686   -2.6776 H         1 <0>         0.3703
     51 H22         0.6370   -3.2239    3.4702 H         1 <0>         0.1420
     52 H23         1.4931   -4.1696    5.5747 H         1 <0>         0.1470
     53 H24        -2.2499   -3.3672    7.4646 H         1 <0>         0.1469
     54 H25        -3.1084   -2.4106    5.3659 H         1 <0>         0.1446
@<TRIPOS>BOND
     1    1    2 1
     2    1   32 1
     3    1   33 1
     4    1   34 1
     5    2   10 1
     6    2   14 1
     7    2    3 1
     8    3    4 1
     9    3   35 1
    10    3   36 1
    11    4    8 2
    12    4    5 1
    13    5    6 2
    14    5   37 1
    15    6    7 1
    16    7    8 1
    17    7   25 1
    18    8    9 1
    19    9   10 2
    20    9   38 1
    21   10   11 1
    22   11   12 1
    23   11   39 1
    24   11   40 1
    25   12   13 1
    26   12   41 1
    27   12   42 1
    28   13   14 1
    29   13   43 1
    30   13   44 1
    31   14   15 1
    32   14   16 1
    33   16   17 1
    34   16   18 1
    35   16   24 1
    36   18   23 ar
    37   18   19 ar
    38   19   20 ar
    39   19   45 1
    40   20   21 ar
    41   20   46 1
    42   21   22 ar
    43   21   47 1
    44   22   23 ar
    45   22   48 1
    46   23   49 1
    47   24   50 1
    48   25   30 ar
    49   25   26 ar
    50   26   27 ar
    51   26   51 1
    52   27   28 ar
    53   27   52 1
    54   28   29 ar
    55   28   31 1
    56   29   30 ar
    57   29   53 1
    58   30   54 1
@<TRIPOS>MOLECULE
CHEMBL65307
   50    54     0     0     0
SMALL
USER_CHARGES

@<TRIPOS>ATOM
      1 C1         -0.0184    1.5028    0.0103 C.3       1 <0>        -0.1306
      2 C2          0.0021   -0.0041    0.0020 C.2       1 <0>        -0.0677
      3 C3         -0.0943   -0.6656   -1.1441 C.2       1 <0>        -0.1675
      4 C4         -0.0903   -2.1708   -1.1756 C.3       1 <0>         0.2134
      5 N1          0.6749   -2.6938   -0.0366 N.pl3     1 <0>        -0.7410
      6 C5          0.4766   -2.1134    1.2177 C.ar      1 <0>         0.2209
      7 C6          0.1355   -0.7510    1.2688 C.ar      1 <0>        -0.0974
      8 C7         -0.0681   -0.1418    2.4965 C.ar      1 <0>        -0.0719
      9 C8          0.0695   -0.8930    3.6665 C.ar      1 <0>        -0.0822
     10 C9          0.4196   -2.2368    3.6065 C.ar      1 <0>        -0.0579
     11 C10         0.6151   -2.8448    2.3839 C.ar      1 <0>        -0.1719
     12 C11        -0.1809   -0.2102    4.9586 C.ar      1 <0>        -0.0976
     13 C12         0.2227   -0.7652    6.1624 C.ar      1 <0>        -0.0700
     14 C13        -0.0316   -0.0853    7.3517 C.ar      1 <0>        -0.0700
     15 C14        -0.6877    1.1450    7.3234 C.ar      1 <0>        -0.0792
     16 C15        -1.0900    1.6946    6.1230 C.ar      1 <0>        -0.1365
     17 C16        -0.8443    1.0253    4.9354 C.ar      1 <0>         0.1266
     18 O1         -1.2445    1.5455    3.7479 O.3       1 <0>        -0.3114
     19 C17        -0.4291    1.3161    2.5990 C.3       1 <0>         0.0905
     20 C18         0.3948   -0.6699    8.6471 C.ar      1 <0>        -0.0384
     21 C19         1.0551   -1.8966    8.6771 C.ar      1 <0>        -0.1145
     22 C20         1.4494   -2.4358    9.8849 C.ar      1 <0>        -0.1159
     23 C21         1.1898   -1.7610   11.0641 C.ar      1 <0>        -0.1214
     24 C22         0.5342   -0.5432   11.0402 C.ar      1 <0>        -0.1157
     25 C23         0.1413    0.0084    9.8376 C.ar      1 <0>        -0.1136
     26 C24        -1.5296   -2.6843   -1.0995 C.3       1 <0>        -0.1588
     27 C25         0.5494   -2.6499   -2.4803 C.3       1 <0>        -0.1524
     28 H1          0.5898    1.8698    0.8371 H         1 <0>         0.0744
     29 H2          0.3843    1.8768   -0.9310 H         1 <0>         0.0722
     30 H3         -1.0440    1.8516    0.1308 H         1 <0>         0.0801
     31 H4         -0.1772   -0.1153   -2.0696 H         1 <0>         0.1253
     32 H5          1.3022   -3.4245   -0.1526 H         1 <0>         0.4035
     33 H6          0.5313   -2.8066    4.5171 H         1 <0>         0.1284
     34 H7          0.8875   -3.8889    2.3383 H         1 <0>         0.1286
     35 H8          0.7312   -1.7179    6.1787 H         1 <0>         0.1306
     36 H9         -0.8825    1.6708    8.2464 H         1 <0>         0.1335
     37 H10        -1.5976    2.6478    6.1096 H         1 <0>         0.1362
     38 H11         0.4822    1.9086    2.6793 H         1 <0>         0.0755
     39 H12        -0.9740    1.6166    1.7041 H         1 <0>         0.1365
     40 H13         1.2577   -2.4247    7.7570 H         1 <0>         0.1234
     41 H14         1.9613   -3.3864    9.9093 H         1 <0>         0.1239
     42 H15         1.4998   -2.1867   12.0070 H         1 <0>         0.1226
     43 H16         0.3338   -0.0208   11.9640 H         1 <0>         0.1244
     44 H17        -0.3659    0.9617    9.8197 H         1 <0>         0.1256
     45 H18        -2.0965   -2.3038   -1.9491 H         1 <0>         0.0667
     46 H19        -1.5283   -3.7740   -1.1222 H         1 <0>         0.0607
     47 H20        -1.9893   -2.3407   -0.1728 H         1 <0>         0.0571
     48 H21         1.5737   -2.2819   -2.5393 H         1 <0>         0.0635
     49 H22         0.5529   -3.7396   -2.5045 H         1 <0>         0.0640
     50 H23        -0.0226   -2.2695   -3.3266 H         1 <0>         0.0750
@<TRIPOS>BOND
     1    1    2 1
     2    1   28 1
     3    1   29 1
     4    1   30 1
     5    2    7 1
     6    2    3 2
     7    3    4 1
     8    3   31 1
     9    4    5 1
    10    4   26 1
    11    4   27 1
    12    5    6 1
    13    5   32 1
    14    6   11 ar
    15    6    7 ar
    16    7    8 ar
    17    8   19 1
    18    8    9 ar
    19    9   10 ar
    20    9   12 1
    21   10   11 ar
    22   10   33 1
    23   11   34 1
    24   12   17 ar
    25   12   13 ar
    26   13   14 ar
    27   13   35 1
    28   14   15 ar
    29   14   20 1
    30   15   16 ar
    31   15   36 1
    32   16   17 ar
    33   16   37 1
    34   17   18 1
    35   18   19 1
    36   19   38 1
    37   19   39 1
    38   20   25 ar
    39   20   21 ar
    40   21   22 ar
    41   21   40 1
    42   22   23 ar
    43   22   41 1
    44   23   24 ar
    45   23   42 1
    46   24   25 ar
    47   24   43 1
    48   25   44 1
    49   26   45 1
    50   26   46 1
    51   26   47 1
    52   27   48 1
    53   27   49 1
    54   27   50 1
@<TRIPOS>MOLECULE
CHEMBL197552
   65    69     0     0     0
SMALL
USER_CHARGES

@<TRIPOS>ATOM
      1 C1         -2.9741   -1.0334   -0.7307 C.3       1 <0>        -0.1824
      2 C2         -1.7605   -0.3491   -1.3629 C.3       1 <0>        -0.0225
      3 C3         -2.0679    1.1335   -1.5828 C.3       1 <0>        -0.1265
      4 C4         -0.5545   -0.4872   -0.4315 C.3       1 <0>        -0.0979
      5 C5         -0.7732    0.3704    0.8165 C.3       1 <0>         0.1349
      6 C6          0.4726    0.3085    1.7026 C.3       1 <0>        -0.0992
      7 C7          1.6849    0.6884    0.8921 C.ar      1 <0>        -0.0742
      8 C8          2.4040   -0.3030    0.2267 C.ar      1 <0>        -0.1117
      9 C9          3.5035    0.0061   -0.5133 C.ar      1 <0>        -0.1030
     10 C10         3.9227    1.3439   -0.6105 C.ar      1 <0>        -0.0510
     11 C11         5.0528    1.7018   -1.3655 C.ar      1 <0>        -0.1069
     12 C12         5.4288    3.0078   -1.4371 C.ar      1 <0>        -0.1159
     13 C13         4.7096    3.9991   -0.7719 C.ar      1 <0>        -0.1157
     14 C14         3.6103    3.6899   -0.0316 C.ar      1 <0>        -0.1062
     15 C15         3.1914    2.3520    0.0658 C.ar      1 <0>        -0.0489
     16 C16         2.0581    1.9949    0.8163 C.ar      1 <0>        -0.0863
     17 C17        -1.9612   -0.1515    1.5829 C.2       1 <0>         0.5039
     18 O1         -1.8570   -1.1580    2.2513 O.2       1 <0>        -0.4977
     19 N1         -3.1395    0.5003    1.5254 N.am      1 <0>        -0.6675
     20 C18        -4.2079    0.0799    2.3161 C.ar      1 <0>         0.1905
     21 C19        -3.9677   -0.4900    3.5629 C.ar      1 <0>        -0.1328
     22 C20        -5.0183   -0.9072    4.3486 C.ar      1 <0>        -0.0078
     23 C21        -6.3305   -0.7576    3.8920 C.ar      1 <0>        -0.2143
     24 C22        -6.5647   -0.1835    2.6369 C.ar      1 <0>        -0.0781
     25 C23        -5.5145    0.2360    1.8597 C.ar      1 <0>        -0.1289
     26 C24        -8.0613   -0.1699    2.4546 C.3       1 <0>         0.0911
     27 O2         -8.6245   -0.7474    3.6355 O.3       1 <0>        -0.3145
     28 C25        -7.6377   -1.0937    4.4791 C.2       1 <0>         0.5229
     29 O3         -7.8006   -1.6085    5.5676 O.2       1 <0>        -0.4485
     30 O4         -1.0144    1.7243    0.4279 O.3       1 <0>        -0.5282
     31 C26        -1.4500   -0.9994   -2.6864 C.ar      1 <0>        -0.0658
     32 C27        -0.2217   -1.5999   -2.8903 C.ar      1 <0>        -0.1232
     33 C28         0.0631   -2.1964   -4.1043 C.ar      1 <0>        -0.1159
     34 C29        -0.8806   -2.1929   -5.1144 C.ar      1 <0>        -0.1254
     35 C30        -2.1093   -1.5932   -4.9103 C.ar      1 <0>        -0.1172
     36 C31        -2.3956   -1.0004   -3.6947 C.ar      1 <0>        -0.1161
     37 H1         -3.7001   -1.2753   -1.5069 H         1 <0>         0.0604
     38 H2         -2.6562   -1.9492   -0.2324 H         1 <0>         0.0562
     39 H3         -3.4307   -0.3631   -0.0024 H         1 <0>         0.0830
     40 H4         -2.7901    1.4690   -0.8385 H         1 <0>         0.0512
     41 H5         -1.1500    1.7132   -1.4857 H         1 <0>         0.0852
     42 H6         -2.4828    1.2744   -2.5809 H         1 <0>         0.0485
     43 H7         -0.4386   -1.5309   -0.1394 H         1 <0>         0.0860
     44 H8          0.3446   -0.1528   -0.9492 H         1 <0>         0.0994
     45 H9          0.3606    1.0022    2.5359 H         1 <0>         0.0824
     46 H10         0.5951   -0.7042    2.0869 H         1 <0>         0.0986
     47 H11         2.0839   -1.3319    0.2996 H         1 <0>         0.1227
     48 H12         4.0513   -0.7728   -1.0230 H         1 <0>         0.1274
     49 H13         5.6200    0.9443   -1.8860 H         1 <0>         0.1264
     50 H14         6.2978    3.2800   -2.0177 H         1 <0>         0.1230
     51 H15         5.0296    5.0280   -0.8448 H         1 <0>         0.1229
     52 H16         3.0630    4.4687    0.4788 H         1 <0>         0.1261
     53 H17         1.4885    2.7530    1.3334 H         1 <0>         0.1249
     54 H18        -3.2441    1.2618    0.9338 H         1 <0>         0.4209
     55 H19        -2.9533   -0.6057    3.9152 H         1 <0>         0.1497
     56 H20        -4.8289   -1.3494    5.3155 H         1 <0>         0.1421
     57 H21        -5.7005    0.6826    0.8941 H         1 <0>         0.1404
     58 H22        -8.4133    0.8549    2.3361 H         1 <0>         0.1190
     59 H23        -8.3362   -0.7624    1.5820 H         1 <0>         0.1185
     60 H24        -1.1620    2.3262    1.1702 H         1 <0>         0.3678
     61 H25         0.5157   -1.6026   -2.1011 H         1 <0>         0.1232
     62 H26         1.0231   -2.6649   -4.2638 H         1 <0>         0.1207
     63 H27        -0.6578   -2.6583   -6.0632 H         1 <0>         0.1202
     64 H28        -2.8465   -1.5902   -5.6995 H         1 <0>         0.1207
     65 H29        -3.3570   -0.5352   -3.5340 H         1 <0>         0.1199
@<TRIPOS>BOND
     1    1    2 1
     2    1   37 1
     3    1   38 1
     4    1   39 1
     5    2    3 1
     6    2    4 1
     7    2   31 1
     8    3   40 1
     9    3   41 1
    10    3   42 1
    11    4    5 1
    12    4   43 1
    13    4   44 1
    14    5    6 1
    15    5   17 1
    16    5   30 1
    17    6    7 1
    18    6   45 1
    19    6   46 1
    20    7   16 ar
    21    7    8 ar
    22    8    9 ar
    23    8   47 1
    24    9   10 ar
    25    9   48 1
    26   10   15 ar
    27   10   11 ar
    28   11   12 ar
    29   11   49 1
    30   12   13 ar
    31   12   50 1
    32   13   14 ar
    33   13   51 1
    34   14   15 ar
    35   14   52 1
    36   15   16 ar
    37   16   53 1
    38   17   18 2
    39   17   19 am
    40   19   20 1
    41   19   54 1
    42   20   25 ar
    43   20   21 ar
    44   21   22 ar
    45   21   55 1
    46   22   23 ar
    47   22   56 1
    48   23   28 1
    49   23   24 ar
    50   24   25 ar
    51   24   26 1
    52   25   57 1
    53   26   27 1
    54   26   58 1
    55   26   59 1
    56   27   28 1
    57   28   29 2
    58   30   60 1
    59   31   36 ar
    60   31   32 ar
    61   32   33 ar
    62   32   61 1
    63   33   34 ar
    64   33   62 1
    65   34   35 ar
    66   34   63 1
    67   35   36 ar
    68   35   64 1
    69   36   65 1
@<TRIPOS>MOLECULE
CHEMBL197552__1
   65    69     0     0     0
SMALL
USER_CHARGES

@<TRIPOS>ATOM
      1 C1         -0.8451   -1.0547   -0.3812 C.3       1 <0>        -0.1249
      2 C2         -1.7896   -2.1463    0.1262 C.3       1 <0>        -0.0211
      3 C3         -1.1339   -2.8854    1.2944 C.3       1 <0>        -0.1775
      4 C4         -3.0991   -1.5097    0.5960 C.3       1 <0>        -0.0953
      5 C5         -2.7959   -0.4228    1.6293 C.3       1 <0>         0.1368
      6 C6         -4.1036    0.2312    2.0802 C.3       1 <0>        -0.1016
      7 C7         -4.8525    0.7397    0.8753 C.ar      1 <0>        -0.0708
      8 C8         -4.6218    2.0369    0.4208 C.ar      1 <0>        -0.0986
      9 C9         -5.2816    2.5270   -0.6639 C.ar      1 <0>        -0.1031
     10 C10        -6.2097    1.7155   -1.3385 C.ar      1 <0>        -0.0508
     11 C11        -6.9098    2.1863   -2.4624 C.ar      1 <0>        -0.1072
     12 C12        -7.8009    1.3718   -3.0906 C.ar      1 <0>        -0.1155
     13 C13        -8.0313    0.0745   -2.6363 C.ar      1 <0>        -0.1148
     14 C14        -7.3719   -0.4154   -1.5513 C.ar      1 <0>        -0.1071
     15 C15        -6.4440    0.3963   -0.8765 C.ar      1 <0>        -0.0487
     16 C16        -5.7398   -0.0766    0.2440 C.ar      1 <0>        -0.1013
     17 C17        -2.1062   -1.0392    2.8190 C.2       1 <0>         0.5078
     18 O1         -2.6736   -1.8843    3.4782 O.2       1 <0>        -0.5014
     19 N1         -0.8588   -0.6512    3.1504 N.am      1 <0>        -0.6777
     20 C18        -0.2064   -1.2479    4.2283 C.ar      1 <0>         0.1882
     21 C19        -0.3096   -2.6212    4.4293 C.ar      1 <0>        -0.1280
     22 C20         0.3322   -3.2166    5.4918 C.ar      1 <0>        -0.0107
     23 C21         1.0897   -2.4386    6.3712 C.ar      1 <0>        -0.2090
     24 C22         1.1891   -1.0579    6.1630 C.ar      1 <0>        -0.0826
     25 C23         0.5523   -0.4698    5.0993 C.ar      1 <0>        -0.1223
     26 C24         2.0641   -0.5286    7.2709 C.3       1 <0>         0.0914
     27 O2          2.4317   -1.6516    8.0766 O.3       1 <0>        -0.3141
     28 C25         1.8769   -2.7660    7.5711 C.2       1 <0>         0.5226
     29 O3          2.0063   -3.8811    8.0363 O.2       1 <0>        -0.4474
     30 O4         -1.9455    0.5659    1.0451 O.3       1 <0>        -0.5296
     31 C26        -2.0757   -3.1204   -0.9875 C.ar      1 <0>        -0.0663
     32 C27        -3.3735   -3.3083   -1.4249 C.ar      1 <0>        -0.1222
     33 C28        -3.6360   -4.2019   -2.4464 C.ar      1 <0>        -0.1159
     34 C29        -2.6007   -4.9073   -3.0308 C.ar      1 <0>        -0.1253
     35 C30        -1.3028   -4.7187   -2.5940 C.ar      1 <0>        -0.1171
     36 C31        -1.0398   -3.8219   -1.5754 C.ar      1 <0>        -0.1156
     37 H1         -0.1040   -1.4964   -1.0473 H         1 <0>         0.0464
     38 H2         -1.4177   -0.3019   -0.9229 H         1 <0>         0.0678
     39 H3         -0.3409   -0.5883    0.4651 H         1 <0>         0.0639
     40 H4         -0.7376   -2.1611    2.0061 H         1 <0>         0.0786
     41 H5         -1.8752   -3.5129    1.7893 H         1 <0>         0.0619
     42 H6         -0.3219   -3.5088    0.9201 H         1 <0>         0.0610
     43 H7         -3.6143   -1.0670   -0.2565 H         1 <0>         0.0977
     44 H8         -3.7329   -2.2732    1.0471 H         1 <0>         0.0884
     45 H9         -4.7150   -0.5030    2.6048 H         1 <0>         0.0968
     46 H10        -3.8820    1.0635    2.7482 H         1 <0>         0.0828
     47 H11        -3.9090    2.6626    0.9373 H         1 <0>         0.1212
     48 H12        -5.0931    3.5345   -1.0044 H         1 <0>         0.1268
     49 H13        -6.7417    3.1895   -2.8256 H         1 <0>         0.1265
     50 H14        -8.3378    1.7363   -3.9539 H         1 <0>         0.1230
     51 H15        -8.7441   -0.5512   -3.1527 H         1 <0>         0.1231
     52 H16        -7.5609   -1.4226   -1.2103 H         1 <0>         0.1264
     53 H17        -5.9049   -1.0811    0.6047 H         1 <0>         0.1261
     54 H18        -0.4149    0.0433    2.6389 H         1 <0>         0.4170
     55 H19        -0.8955   -3.2219    3.7494 H         1 <0>         0.1485
     56 H20         0.2500   -4.2824    5.6454 H         1 <0>         0.1424
     57 H21         0.6359    0.5952    4.9402 H         1 <0>         0.1407
     58 H22         2.9558   -0.0625    6.8516 H         1 <0>         0.1190
     59 H23         1.5110    0.1950    7.8697 H         1 <0>         0.1184
     60 H24        -1.7117    1.2875    1.6448 H         1 <0>         0.3688
     61 H25        -4.1824   -2.7573   -0.9684 H         1 <0>         0.1226
     62 H26        -4.6500   -4.3492   -2.7877 H         1 <0>         0.1205
     63 H27        -2.8059   -5.6059   -3.8284 H         1 <0>         0.1201
     64 H28        -0.4940   -5.2700   -3.0503 H         1 <0>         0.1207
     65 H29        -0.0253   -3.6719   -1.2366 H         1 <0>         0.1196
@<TRIPOS>BOND
     1    1    2 1
     2    1   37 1
     3    1   38 1
     4    1   39 1
     5    2    3 1
     6    2    4 1
     7    2   31 1
     8    3   40 1
     9    3   41 1
    10    3   42 1
    11    4    5 1
    12    4   43 1
    13    4   44 1
    14    5    6 1
    15    5   17 1
    16    5   30 1
    17    6    7 1
    18    6   45 1
    19    6   46 1
    20    7   16 ar
    21    7    8 ar
    22    8    9 ar
    23    8   47 1
    24    9   10 ar
    25    9   48 1
    26   10   15 ar
    27   10   11 ar
    28   11   12 ar
    29   11   49 1
    30   12   13 ar
    31   12   50 1
    32   13   14 ar
    33   13   51 1
    34   14   15 ar
    35   14   52 1
    36   15   16 ar
    37   16   53 1
    38   17   18 2
    39   17   19 am
    40   19   20 1
    41   19   54 1
    42   20   25 ar
    43   20   21 ar
    44   21   22 ar
    45   21   55 1
    46   22   23 ar
    47   22   56 1
    48   23   28 1
    49   23   24 ar
    50   24   25 ar
    51   24   26 1
    52   25   57 1
    53   26   27 1
    54   26   58 1
    55   26   59 1
    56   27   28 1
    57   28   29 2
    58   30   60 1
    59   31   36 ar
    60   31   32 ar
    61   32   33 ar
    62   32   61 1
    63   33   34 ar
    64   33   62 1
    65   34   35 ar
    66   34   63 1
    67   35   36 ar
    68   35   64 1
    69   36   65 1
@<TRIPOS>MOLECULE
CHEMBL422241
   61    66     0     0     0
SMALL
USER_CHARGES

@<TRIPOS>ATOM
      1 C1         -1.0418   -0.3593    0.6693 C.ar      1 <0>        -0.1231
      2 C2         -0.1026    0.6316    0.8943 C.ar      1 <0>        -0.1071
      3 C3          1.2431    0.3296    0.8681 C.ar      1 <0>        -0.0991
      4 C4          1.6566   -0.9800    0.6142 C.ar      1 <0>         0.0758
      5 C5          0.7031   -1.9752    0.3885 C.ar      1 <0>        -0.1472
      6 C6         -0.6392   -1.6589    0.4171 C.ar      1 <0>        -0.1052
      7 N1          2.9902   -1.2866    0.5864 N.2       1 <0>        -0.4497
      8 C7          3.4268   -2.3523    1.1969 C.2       1 <0>         0.2304
      9 C8          4.8604   -2.6819    1.1669 C.2       1 <0>         0.0981
     10 C9          5.4673   -3.7972    1.7738 C.2       1 <0>        -0.1934
     11 C10         6.7950   -3.7415    1.5176 C.2       1 <0>         0.0926
     12 N2          7.0324   -2.6353    0.7735 N.pl3     1 <0>        -0.3169
     13 N3          5.8077   -1.9856    0.5597 N.2       1 <0>        -0.2290
     14 C11         8.2814   -2.2160    0.2965 C.ar      1 <0>         0.1404
     15 C12         9.1210   -3.1195   -0.3415 C.ar      1 <0>        -0.0959
     16 C13        10.3514   -2.7041   -0.8113 C.ar      1 <0>        -0.1355
     17 C14        10.7483   -1.3876   -0.6460 C.ar      1 <0>         0.1096
     18 C15         9.9123   -0.4850   -0.0099 C.ar      1 <0>        -0.1345
     19 C16         8.6788   -0.8950    0.4562 C.ar      1 <0>        -0.0732
     20 F1         11.9527   -0.9834   -1.1055 F         1 <0>        -0.1305
     21 C17         7.7941   -4.7621    2.0037 C.3       1 <0>        -0.0173
     22 C18         7.1449   -5.5778    3.1283 C.3       1 <0>        -0.1081
     23 C19         5.7709   -6.0752    2.6711 C.3       1 <0>        -0.1209
     24 C20         4.8035   -4.8890    2.5753 C.3       1 <0>        -0.0454
     25 C21         9.0396   -4.0507    2.5361 C.3       1 <0>        -0.0891
     26 C22         9.9672   -5.0614    3.1601 C.ar      1 <0>        -0.0653
     27 C23        10.0254   -5.1925    4.5137 C.ar      1 <0>        -0.1095
     28 C24        10.8768   -6.1212    5.1086 C.ar      1 <0>        -0.1123
     29 C25        11.6754   -6.9243    4.3534 C.ar      1 <0>        -0.1079
     30 C26        11.6428   -6.8178    2.9528 C.ar      1 <0>        -0.0499
     31 C27        10.7721   -5.8773    2.3474 C.ar      1 <0>        -0.0427
     32 C28        10.7354   -5.7750    0.9461 C.ar      1 <0>        -0.1182
     33 C29        11.5295   -6.5820    0.1911 C.ar      1 <0>        -0.1140
     34 C30        12.3809   -7.5114    0.7862 C.ar      1 <0>        -0.1162
     35 C31        12.4530   -7.6293    2.1401 C.ar      1 <0>        -0.1038
     36 H1         -2.0942   -0.1181    0.6950 H         1 <0>         0.1257
     37 H2         -0.4238    1.6439    1.0904 H         1 <0>         0.1291
     38 H3          1.9751    1.1041    1.0432 H         1 <0>         0.1293
     39 H4          1.0160   -2.9899    0.1912 H         1 <0>         0.1240
     40 H5         -1.3777   -2.4274    0.2428 H         1 <0>         0.1265
     41 H6          2.7362   -2.9933    1.7248 H         1 <0>         0.1271
     42 H7          8.8122   -4.1464   -0.4699 H         1 <0>         0.1409
     43 H8         11.0047   -3.4065   -1.3075 H         1 <0>         0.1486
     44 H9         10.2238    0.5411    0.1183 H         1 <0>         0.1484
     45 H10         8.0253   -0.1898    0.9481 H         1 <0>         0.1445
     46 H11         8.0714   -5.4239    1.1832 H         1 <0>         0.0925
     47 H12         7.7782   -6.4313    3.3701 H         1 <0>         0.0776
     48 H13         7.0285   -4.9501    4.0118 H         1 <0>         0.0718
     49 H14         5.8627   -6.5490    1.6938 H         1 <0>         0.0662
     50 H15         5.3884   -6.7987    3.3911 H         1 <0>         0.0738
     51 H16         4.5730   -4.5219    3.5753 H         1 <0>         0.0768
     52 H17         3.8856   -5.2029    2.0783 H         1 <0>         0.0762
     53 H18         9.5499   -3.5478    1.7147 H         1 <0>         0.0843
     54 H19         8.7458   -3.3159    3.2856 H         1 <0>         0.0793
     55 H20         9.4025   -4.5669    5.1360 H         1 <0>         0.1225
     56 H21        10.9037   -6.2051    6.1850 H         1 <0>         0.1239
     57 H22        12.3309   -7.6392    4.8284 H         1 <0>         0.1266
     58 H23        10.0801   -5.0600    0.4710 H         1 <0>         0.1254
     59 H24        11.4993   -6.5013   -0.8855 H         1 <0>         0.1223
     60 H25        13.0005   -8.1400    0.1638 H         1 <0>         0.1234
     61 H26        13.1180   -8.3533    2.5873 H         1 <0>         0.1271
@<TRIPOS>BOND
     1    1    6 ar
     2    1    2 ar
     3    1   36 1
     4    2    3 ar
     5    2   37 1
     6    3    4 ar
     7    3   38 1
     8    4    5 ar
     9    4    7 1
    10    5    6 ar
    11    5   39 1
    12    6   40 1
    13    7    8 2
    14    8    9 1
    15    8   41 1
    16    9   13 2
    17    9   10 1
    18   10   24 1
    19   10   11 2
    20   11   12 1
    21   11   21 1
    22   12   13 1
    23   12   14 1
    24   14   19 ar
    25   14   15 ar
    26   15   16 ar
    27   15   42 1
    28   16   17 ar
    29   16   43 1
    30   17   18 ar
    31   17   20 1
    32   18   19 ar
    33   18   44 1
    34   19   45 1
    35   21   22 1
    36   21   25 1
    37   21   46 1
    38   22   23 1
    39   22   47 1
    40   22   48 1
    41   23   24 1
    42   23   49 1
    43   23   50 1
    44   24   51 1
    45   24   52 1
    46   25   26 1
    47   25   53 1
    48   25   54 1
    49   26   31 ar
    50   26   27 ar
    51   27   28 ar
    52   27   55 1
    53   28   29 ar
    54   28   56 1
    55   29   30 ar
    56   29   57 1
    57   30   35 ar
    58   30   31 ar
    59   31   32 ar
    60   32   33 ar
    61   32   58 1
    62   33   34 ar
    63   33   59 1
    64   34   35 ar
    65   34   60 1
    66   35   61 1
@<TRIPOS>MOLECULE
CHEMBL422241__1
   61    66     0     0     0
SMALL
USER_CHARGES

@<TRIPOS>ATOM
      1 C1          0.6258    2.1454    0.4772 C.ar      1 <0>        -0.1231
      2 C2          1.8703    2.7394    0.5910 C.ar      1 <0>        -0.1071
      3 C3          3.0139    1.9717    0.5174 C.ar      1 <0>        -0.0991
      4 C4          2.9136    0.5916    0.3279 C.ar      1 <0>         0.0757
      5 C5          1.6541   -0.0013    0.2143 C.ar      1 <0>        -0.1472
      6 C6          0.5190    0.7786    0.2893 C.ar      1 <0>        -0.1052
      7 N1          4.0441   -0.1761    0.2535 N.2       1 <0>        -0.4496
      8 C7          4.1125   -1.3008    0.9088 C.2       1 <0>         0.2303
      9 C8          5.3279   -2.1262    0.8287 C.2       1 <0>         0.0984
     10 C9          5.5369   -3.3587    1.4751 C.2       1 <0>        -0.1936
     11 C10         6.7747   -3.7975    1.1481 C.2       1 <0>         0.0923
     12 N2          7.3402   -2.8824    0.3257 N.pl3     1 <0>        -0.3156
     13 N3          6.4168   -1.8444    0.1317 N.2       1 <0>        -0.2296
     14 C11         8.6213   -2.9607   -0.2364 C.ar      1 <0>         0.1391
     15 C12         9.7028   -3.3395    0.5480 C.ar      1 <0>        -0.0909
     16 C13        10.9645   -3.4165   -0.0080 C.ar      1 <0>        -0.1370
     17 C14        11.1518   -3.1158   -1.3469 C.ar      1 <0>         0.1081
     18 C15        10.0745   -2.7378   -2.1309 C.ar      1 <0>        -0.1353
     19 C16         8.8103   -2.6651   -1.5801 C.ar      1 <0>        -0.0748
     20 F1         12.3871   -3.1909   -1.8888 F         1 <0>        -0.1312
     21 C17         7.3712   -5.0922    1.6418 C.3       1 <0>        -0.0152
     22 C18         6.2387   -5.9697    2.1887 C.3       1 <0>        -0.1120
     23 C19         5.3836   -5.1529    3.1614 C.3       1 <0>        -0.1208
     24 C20         4.5864   -4.1002    2.3816 C.3       1 <0>        -0.0456
     25 C21         8.0683   -5.8122    0.4857 C.3       1 <0>        -0.0939
     26 C22         8.7743   -7.0365    1.0090 C.ar      1 <0>        -0.0646
     27 C23        10.0535   -6.9460    1.4654 C.ar      1 <0>        -0.1138
     28 C24        10.7223   -8.0669    1.9529 C.ar      1 <0>        -0.1125
     29 C25        10.1160   -9.2852    1.9864 C.ar      1 <0>        -0.1076
     30 C26         8.7960   -9.4177    1.5238 C.ar      1 <0>        -0.0497
     31 C27         8.1135   -8.2762    1.0337 C.ar      1 <0>        -0.0429
     32 C28         6.7910   -8.4078    0.5764 C.ar      1 <0>        -0.1091
     33 C29         6.1829   -9.6246    0.6156 C.ar      1 <0>        -0.1156
     34 C30         6.8519  -10.7458    1.1036 C.ar      1 <0>        -0.1150
     35 C31         8.1373  -10.6592    1.5423 C.ar      1 <0>        -0.1068
     36 H1         -0.2664    2.7507    0.5397 H         1 <0>         0.1257
     37 H2          1.9464    3.8067    0.7375 H         1 <0>         0.1291
     38 H3          3.9847    2.4368    0.6057 H         1 <0>         0.1294
     39 H4          1.5693   -1.0679    0.0673 H         1 <0>         0.1240
     40 H5         -0.4556    0.3214    0.2017 H         1 <0>         0.1265
     41 H6          3.2770   -1.6269    1.5104 H         1 <0>         0.1271
     42 H7          9.5573   -3.5734    1.5922 H         1 <0>         0.1414
     43 H8         11.8058   -3.7111    0.6017 H         1 <0>         0.1486
     44 H9         10.2226   -2.5033   -3.1747 H         1 <0>         0.1478
     45 H10         7.9697   -2.3746   -2.1928 H         1 <0>         0.1443
     46 H11         8.0911   -4.8862    2.4339 H         1 <0>         0.0938
     47 H12         5.6177   -6.3177    1.3632 H         1 <0>         0.0732
     48 H13         6.6633   -6.8274    2.7104 H         1 <0>         0.0788
     49 H14         4.6949   -5.8161    3.6848 H         1 <0>         0.0736
     50 H15         6.0303   -4.6564    3.8849 H         1 <0>         0.0665
     51 H16         4.1222   -3.4013    3.0774 H         1 <0>         0.0767
     52 H17         3.8172   -4.5904    1.7849 H         1 <0>         0.0762
     53 H18         7.3277   -6.1094   -0.2567 H         1 <0>         0.0801
     54 H19         8.7951   -5.1424    0.0260 H         1 <0>         0.0868
     55 H20        10.5578   -5.9910    1.4491 H         1 <0>         0.1201
     56 H21        11.7371   -7.9677    2.3091 H         1 <0>         0.1235
     57 H22        10.6470  -10.1455    2.3664 H         1 <0>         0.1264
     58 H23         6.2599   -7.5476    0.1963 H         1 <0>         0.1295
     59 H24         5.1667   -9.7229    0.2636 H         1 <0>         0.1225
     60 H25         6.3461  -11.6999    1.1240 H         1 <0>         0.1227
     61 H26         8.6433  -11.5366    1.9170 H         1 <0>         0.1264
@<TRIPOS>BOND
     1    1    6 ar
     2    1    2 ar
     3    1   36 1
     4    2    3 ar
     5    2   37 1
     6    3    4 ar
     7    3   38 1
     8    4    5 ar
     9    4    7 1
    10    5    6 ar
    11    5   39 1
    12    6   40 1
    13    7    8 2
    14    8    9 1
    15    8   41 1
    16    9   13 2
    17    9   10 1
    18   10   24 1
    19   10   11 2
    20   11   12 1
    21   11   21 1
    22   12   13 1
    23   12   14 1
    24   14   19 ar
    25   14   15 ar
    26   15   16 ar
    27   15   42 1
    28   16   17 ar
    29   16   43 1
    30   17   18 ar
    31   17   20 1
    32   18   19 ar
    33   18   44 1
    34   19   45 1
    35   21   22 1
    36   21   25 1
    37   21   46 1
    38   22   23 1
    39   22   47 1
    40   22   48 1
    41   23   24 1
    42   23   49 1
    43   23   50 1
    44   24   51 1
    45   24   52 1
    46   25   26 1
    47   25   53 1
    48   25   54 1
    49   26   31 ar
    50   26   27 ar
    51   27   28 ar
    52   27   55 1
    53   28   29 ar
    54   28   56 1
    55   29   30 ar
    56   29   57 1
    57   30   35 ar
    58   30   31 ar
    59   31   32 ar
    60   32   33 ar
    61   32   58 1
    62   33   34 ar
    63   33   59 1
    64   34   35 ar
    65   34   60 1
    66   35   61 1
@<TRIPOS>MOLECULE
CHEMBL413806
   75    80     0     0     0
SMALL
USER_CHARGES

@<TRIPOS>ATOM
      1 C1         -3.1586   -2.6436   -0.9269 C.3       1 <0>        -0.1607
      2 C2         -1.7377   -2.2749   -0.4956 C.3       1 <0>         0.1061
      3 O1         -0.8851   -2.2433   -1.6419 O.3       1 <0>        -0.7465
      4 P1          0.6833   -1.8893   -1.5586 P.3       1 <0>         2.5109
      5 O2          1.3427   -2.7948   -0.5913 O.2       1 <0>        -1.0182
      6 C3          0.8883   -0.1624   -1.0117 C.3       1 <0>        -0.8188
      7 C4          1.4382   -2.0991   -3.1947 C.ar      1 <0>        -0.7322
      8 C5          2.7651   -2.4718   -3.3010 C.ar      1 <0>        -0.0343
      9 C6          3.3404   -2.6316   -4.5477 C.ar      1 <0>        -0.1453
     10 C7          2.5887   -2.4192   -5.6882 C.ar      1 <0>        -0.0089
     11 C8          1.2615   -2.0474   -5.5819 C.ar      1 <0>        -0.1363
     12 C9          0.6851   -1.8917   -4.3352 C.ar      1 <0>        -0.0560
     13 C10         3.2161   -2.5925   -7.0474 C.3       1 <0>        -0.0343
     14 H1          2.8811   -3.5360   -7.4784 H         1 <0>         0.1090
     15 C11         2.7740   -1.4369   -7.9580 C.3       1 <0>        -0.0980
     16 C12         3.4389   -0.1754   -7.4364 C.3       1 <0>        -0.0459
     17 C13         4.9622   -0.3216   -7.6982 C.3       1 <0>        -0.0799
     18 H2          5.1472   -0.6382   -8.7246 H         1 <0>         0.0829
     19 C14         5.4618    1.1129   -7.4781 C.3       1 <0>        -0.1131
     20 C15         4.3608    1.9764   -8.1521 C.3       1 <0>        -0.1347
     21 C16         3.0792    1.1170   -8.1533 C.3       1 <0>         0.1460
     22 C17         2.6381    0.8499   -9.5737 C.2       1 <0>        -0.1403
     23 C18         3.2976    0.2160  -10.5114 C.2       1 <0>        -0.1673
     24 C19         1.2535    1.4823   -9.6724 C.3       1 <0>        -0.1278
     25 C20         1.2689    2.4983   -8.5017 C.3       1 <0>         0.0449
     26 O3          2.0237    1.8102   -7.4781 O.3       1 <0>        -0.3534
     27 C21         5.4903   -1.3588   -6.7163 C.3       1 <0>        -0.0484
     28 H3          5.3085   -1.0070   -5.7008 H         1 <0>         0.0947
     29 C22         4.7243   -2.6207   -6.8993 C.2       1 <0>        -0.0551
     30 C23         5.3228   -3.8102   -6.9424 C.2       1 <0>        -0.1205
     31 C24         4.5138   -5.0719   -7.1403 C.3       1 <0>        -0.0833
     32 C25         5.2543   -5.9781   -8.1284 C.3       1 <0>        -0.1654
     33 C26         6.6885   -6.1411   -7.7033 C.2       1 <0>         0.3862
     34 O4          7.2422   -7.2090   -7.8725 O.2       1 <0>        -0.4676
     35 C27         7.3999   -5.0816   -7.1136 C.2       1 <0>        -0.2423
     36 C28         6.7702   -3.9365   -6.7737 C.2       1 <0>         0.0208
     37 C29         7.5198   -2.7568   -6.2045 C.3       1 <0>        -0.0956
     38 C30         6.9862   -1.5310   -6.9167 C.3       1 <0>        -0.1111
     39 C31         3.1722   -0.0295   -5.9369 C.3       1 <0>        -0.1613
     40 H4         -3.5279   -1.9009   -1.6341 H         1 <0>         0.0640
     41 H5         -3.1512   -3.6249   -1.4014 H         1 <0>         0.0706
     42 H6         -3.8090   -2.6678   -0.0525 H         1 <0>         0.0769
     43 H7         -1.7452   -1.2936   -0.0211 H         1 <0>         0.0565
     44 H8         -1.3684   -3.0176    0.2116 H         1 <0>         0.0799
     45 H9          0.4347   -0.0364   -0.0286 H         1 <0>         0.1060
     46 H10         1.9501    0.0772   -0.9553 H         1 <0>         0.1089
     47 H11         0.4027    0.5044   -1.7241 H         1 <0>         0.0917
     48 H12         3.3525   -2.6378   -2.4100 H         1 <0>         0.1379
     49 H13         4.3773   -2.9221   -4.6308 H         1 <0>         0.1303
     50 H14         0.6743   -1.8810   -6.4729 H         1 <0>         0.1279
     51 H15        -0.3528   -1.6048   -4.2521 H         1 <0>         0.1292
     52 H16         3.0932   -1.6284   -8.9824 H         1 <0>         0.0787
     53 H17         1.6901   -1.3281   -7.9201 H         1 <0>         0.0745
     54 H18         5.5299    1.3379   -6.4138 H         1 <0>         0.0716
     55 H19         6.4238    1.2650   -7.9674 H         1 <0>         0.0707
     56 H20         4.1987    2.8900   -7.5802 H         1 <0>         0.0754
     57 H21         4.6493    2.2201   -9.1746 H         1 <0>         0.0716
     58 H22         4.2784   -0.1860  -10.3041 H         1 <0>         0.1081
     59 H23         2.8607    0.0954  -11.4916 H         1 <0>         0.1083
     60 H24         1.1277    1.9929  -10.6271 H         1 <0>         0.0849
     61 H25         0.4743    0.7342   -9.5261 H         1 <0>         0.0870
     62 H26         1.7721    3.4188   -8.7976 H         1 <0>         0.0627
     63 H27         0.2553    2.7057   -8.1586 H         1 <0>         0.0941
     64 H28         4.3999   -5.5868   -6.1864 H         1 <0>         0.0841
     65 H29         3.5326   -4.8181   -7.5414 H         1 <0>         0.0911
     66 H30         4.7716   -6.9550   -8.1548 H         1 <0>         0.0959
     67 H31         5.2203   -5.5328   -9.1228 H         1 <0>         0.0991
     68 H32         8.4594   -5.1842   -6.9311 H         1 <0>         0.1362
     69 H33         7.3471   -2.6929   -5.1302 H         1 <0>         0.0914
     70 H34         8.5861   -2.8664   -6.4022 H         1 <0>         0.0872
     71 H35         7.1987   -1.5772   -7.9847 H         1 <0>         0.0725
     72 H36         7.5032   -0.6717   -6.4896 H         1 <0>         0.0742
     73 H37         3.7222   -0.7979   -5.3936 H         1 <0>         0.0806
     74 H38         3.4993    0.9555   -5.6039 H         1 <0>         0.0515
     75 H39         2.1052   -0.1421   -5.7450 H         1 <0>         0.0702
@<TRIPOS>BOND
     1    1    2 1
     2    1   40 1
     3    1   41 1
     4    1   42 1
     5    2    3 1
     6    2   43 1
     7    2   44 1
     8    3    4 1
     9    4    5 2
    10    4    6 1
    11    4    7 1
    12    6   45 1
    13    6   46 1
    14    6   47 1
    15    7   12 ar
    16    7    8 ar
    17    8    9 ar
    18    8   48 1
    19    9   10 ar
    20    9   49 1
    21   10   11 ar
    22   10   13 1
    23   11   12 ar
    24   11   50 1
    25   12   51 1
    26   13   14 1
    27   13   29 1
    28   13   15 1
    29   15   16 1
    30   15   52 1
    31   15   53 1
    32   16   21 1
    33   16   17 1
    34   16   39 1
    35   17   18 1
    36   17   19 1
    37   17   27 1
    38   19   20 1
    39   19   54 1
    40   19   55 1
    41   20   21 1
    42   20   56 1
    43   20   57 1
    44   21   26 1
    45   21   22 1
    46   22   23 2
    47   22   24 1
    48   23   58 1
    49   23   59 1
    50   24   25 1
    51   24   60 1
    52   24   61 1
    53   25   26 1
    54   25   62 1
    55   25   63 1
    56   27   28 1
    57   27   38 1
    58   27   29 1
    59   29   30 2
    60   30   36 1
    61   30   31 1
    62   31   32 1
    63   31   64 1
    64   31   65 1
    65   32   33 1
    66   32   66 1
    67   32   67 1
    68   33   34 2
    69   33   35 1
    70   35   36 2
    71   35   68 1
    72   36   37 1
    73   37   38 1
    74   37   69 1
    75   37   70 1
    76   38   71 1
    77   38   72 1
    78   39   73 1
    79   39   74 1
    80   39   75 1
@<TRIPOS>MOLECULE
CHEMBL413806__1
   75    80     0     0     0
SMALL
USER_CHARGES

@<TRIPOS>ATOM
      1 C1         -2.8945   -2.4719   -1.3749 C.3       1 <0>        -0.1608
      2 C2         -1.5582   -2.1014   -0.7285 C.3       1 <0>         0.1063
      3 O1         -0.5101   -2.2360   -1.6904 O.3       1 <0>        -0.7466
      4 P1          1.0337   -1.9268   -1.3542 P.3       1 <0>         2.5109
      5 O2          1.1558   -0.5538   -0.8154 O.2       1 <0>        -1.0183
      6 C3          1.6371   -3.1213   -0.1162 C.3       1 <0>        -0.8188
      7 C4          2.0231   -2.0727   -2.8676 C.ar      1 <0>        -0.7322
      8 C5          1.6335   -2.9450   -3.8666 C.ar      1 <0>        -0.0582
      9 C6          2.3875   -3.0562   -5.0199 C.ar      1 <0>        -0.1456
     10 C7          3.5308   -2.2947   -5.1743 C.ar      1 <0>        -0.0090
     11 C8          3.9199   -1.4217   -4.1757 C.ar      1 <0>        -0.1359
     12 C9          3.1636   -1.3074   -3.0242 C.ar      1 <0>        -0.0321
     13 C10         4.3533   -2.4166   -6.4312 C.3       1 <0>        -0.0345
     14 H1          4.1658   -1.5511   -7.0667 H         1 <0>         0.1093
     15 C11         5.8429   -2.4547   -6.0574 C.3       1 <0>        -0.0987
     16 C12         6.0959   -3.7782   -5.3574 C.3       1 <0>        -0.0457
     17 C13         5.9289   -4.8958   -6.4220 C.3       1 <0>        -0.0803
     18 H2          6.4887   -4.6532   -7.3252 H         1 <0>         0.0831
     19 C14         6.5498   -6.1066   -5.7118 C.3       1 <0>        -0.1128
     20 C15         7.7987   -5.5028   -5.0133 C.3       1 <0>        -0.1348
     21 C16         7.5057   -3.9988   -4.8309 C.3       1 <0>         0.1459
     22 C17         8.5127   -3.1792   -5.6041 C.2       1 <0>        -0.1399
     23 C18         8.7228   -3.1806   -6.8971 C.2       1 <0>        -0.1679
     24 C19         9.2297   -2.3497   -4.5437 C.3       1 <0>        -0.1280
     25 C20         8.9521   -3.1554   -3.2489 C.3       1 <0>         0.0448
     26 O3          7.6058   -3.6444   -3.4472 O.3       1 <0>        -0.3529
     27 C21         4.4416   -5.0064   -6.7294 C.3       1 <0>        -0.0480
     28 H3          3.9113   -5.2677   -5.8136 H         1 <0>         0.0940
     29 C22         3.9468   -3.6751   -7.1717 C.2       1 <0>        -0.0537
     30 C23         3.1401   -3.5351   -8.2227 C.2       1 <0>        -0.1218
     31 C24         2.6649   -2.1653   -8.6507 C.3       1 <0>        -0.0829
     32 C25         2.7317   -2.0794  -10.1784 C.3       1 <0>        -0.1656
     33 C26         2.0432   -3.2683  -10.7923 C.2       1 <0>         0.3861
     34 O4          1.4162   -3.1269  -11.8230 O.2       1 <0>        -0.4676
     35 C27         2.1114   -4.5395  -10.1957 C.2       1 <0>        -0.2426
     36 C28         2.6688   -4.6969   -8.9759 C.2       1 <0>         0.0207
     37 C29         2.8194   -6.0578   -8.3413 C.3       1 <0>        -0.0951
     38 C30         4.2165   -6.1016   -7.7575 C.3       1 <0>        -0.1114
     39 C31         5.0830   -3.9699   -4.2269 C.3       1 <0>        -0.1614
     40 H4         -3.0871   -1.8078   -2.2175 H         1 <0>         0.0706
     41 H5         -2.8545   -3.5028   -1.7267 H         1 <0>         0.0639
     42 H6         -3.6940   -2.3692   -0.6412 H         1 <0>         0.0770
     43 H7         -1.5983   -1.0705   -0.3767 H         1 <0>         0.0799
     44 H8         -1.3657   -2.7656    0.1141 H         1 <0>         0.0565
     45 H9          1.5471   -4.1325   -0.5131 H         1 <0>         0.0911
     46 H10         2.6823   -2.9119    0.1114 H         1 <0>         0.1094
     47 H11         1.0425   -3.0336    0.7931 H         1 <0>         0.1059
     48 H12         0.7403   -3.5400   -3.7460 H         1 <0>         0.1285
     49 H13         2.0835   -3.7383   -5.8002 H         1 <0>         0.1280
     50 H14         4.8133   -0.8270   -4.2962 H         1 <0>         0.1304
     51 H15         3.4655   -0.6226   -2.2456 H         1 <0>         0.1387
     52 H16         6.4535   -2.3883   -6.9579 H         1 <0>         0.0789
     53 H17         6.0785   -1.6287   -5.3863 H         1 <0>         0.0759
     54 H18         5.8584   -6.5180   -4.9764 H         1 <0>         0.0710
     55 H19         6.8432   -6.8682   -6.4343 H         1 <0>         0.0704
     56 H20         7.9503   -5.9753   -4.0428 H         1 <0>         0.0755
     57 H21         8.6807   -5.6395   -5.6390 H         1 <0>         0.0717
     58 H22         8.1377   -3.8229   -7.5386 H         1 <0>         0.1076
     59 H23         9.4811   -2.5394   -7.3217 H         1 <0>         0.1083
     60 H24        10.2993   -2.3004   -4.7478 H         1 <0>         0.0850
     61 H25         8.8001   -1.3500   -4.4777 H         1 <0>         0.0879
     62 H26         9.6528   -3.9850   -3.1541 H         1 <0>         0.0624
     63 H27         9.0012   -2.5070   -2.3741 H         1 <0>         0.0951
     64 H28         1.6370   -2.0150   -8.3205 H         1 <0>         0.0831
     65 H29         3.3078   -1.4017   -8.2129 H         1 <0>         0.0918
     66 H30         2.2400   -1.1652  -10.5111 H         1 <0>         0.0960
     67 H31         3.7747   -2.0625  -10.4944 H         1 <0>         0.0995
     68 H32         1.7148   -5.3977  -10.7177 H         1 <0>         0.1359
     69 H33         2.0655   -6.1890   -7.5652 H         1 <0>         0.0900
     70 H34         2.7093   -6.8332   -9.0995 H         1 <0>         0.0870
     71 H35         4.9694   -6.0139   -8.5409 H         1 <0>         0.0728
     72 H36         4.3221   -7.0719   -7.2722 H         1 <0>         0.0739
     73 H37         4.0935   -4.1412   -4.6508 H         1 <0>         0.0797
     74 H38         5.3725   -4.8287   -3.6214 H         1 <0>         0.0512
     75 H39         5.0613   -3.0763   -3.6031 H         1 <0>         0.0714
@<TRIPOS>BOND
     1    1    2 1
     2    1   40 1
     3    1   41 1
     4    1   42 1
     5    2    3 1
     6    2   43 1
     7    2   44 1
     8    3    4 1
     9    4    5 2
    10    4    6 1
    11    4    7 1
    12    6   45 1
    13    6   46 1
    14    6   47 1
    15    7   12 ar
    16    7    8 ar
    17    8    9 ar
    18    8   48 1
    19    9   10 ar
    20    9   49 1
    21   10   11 ar
    22   10   13 1
    23   11   12 ar
    24   11   50 1
    25   12   51 1
    26   13   14 1
    27   13   29 1
    28   13   15 1
    29   15   16 1
    30   15   52 1
    31   15   53 1
    32   16   21 1
    33   16   17 1
    34   16   39 1
    35   17   18 1
    36   17   19 1
    37   17   27 1
    38   19   20 1
    39   19   54 1
    40   19   55 1
    41   20   21 1
    42   20   56 1
    43   20   57 1
    44   21   26 1
    45   21   22 1
    46   22   23 2
    47   22   24 1
    48   23   58 1
    49   23   59 1
    50   24   25 1
    51   24   60 1
    52   24   61 1
    53   25   26 1
    54   25   62 1
    55   25   63 1
    56   27   28 1
    57   27   38 1
    58   27   29 1
    59   29   30 2
    60   30   36 1
    61   30   31 1
    62   31   32 1
    63   31   64 1
    64   31   65 1
    65   32   33 1
    66   32   66 1
    67   32   67 1
    68   33   34 2
    69   33   35 1
    70   35   36 2
    71   35   68 1
    72   36   37 1
    73   37   38 1
    74   37   69 1
    75   37   70 1
    76   38   71 1
    77   38   72 1
    78   39   73 1
    79   39   74 1
    80   39   75 1
@<TRIPOS>MOLECULE
CHEMBL293452
   51    54     0     0     0
SMALL
USER_CHARGES

@<TRIPOS>ATOM
      1 C1         -0.0184    1.5028    0.0103 C.3       1 <0>        -0.1112
      2 C2          0.0021   -0.0041    0.0020 C.ar      1 <0>        -0.0869
      3 C3          0.0057   -0.6887   -1.1989 C.ar      1 <0>        -0.1202
      4 C4          0.0245   -2.0708   -1.2065 C.ar      1 <0>        -0.0844
      5 C5          0.0400   -2.7685   -0.0132 C.ar      1 <0>        -0.1080
      6 C6          0.0373   -2.0839    1.1877 C.ar      1 <0>        -0.0585
      7 C7          0.0229   -0.7016    1.1953 C.ar      1 <0>        -0.0916
      8 C8          0.0537   -2.8444    2.4887 C.3       1 <0>         0.1877
      9 C9         -1.3597   -3.0287    2.9755 C.ar      1 <0>        -0.0776
     10 C10        -2.4103   -3.1054    2.0891 C.ar      1 <0>        -0.1592
     11 C11        -3.7042   -3.2929    2.5630 C.ar      1 <0>         0.2946
     12 C12        -3.9417   -3.4057    3.9281 C.ar      1 <0>        -0.2586
     13 C13        -2.8926   -3.3233    4.8215 C.ar      1 <0>        -0.0349
     14 C14        -1.6010   -3.1266    4.3484 C.ar      1 <0>        -0.1534
     15 C15        -0.4491   -2.9875    5.2692 C.ar      1 <0>        -0.0926
     16 C16         0.7567   -2.4984    4.7499 C.ar      1 <0>         0.1463
     17 C17         1.8578   -2.3783    5.5798 C.ar      1 <0>        -0.1731
     18 C18         1.7575   -2.7154    6.9177 C.ar      1 <0>        -0.0756
     19 C19         0.5612   -3.1701    7.4404 C.ar      1 <0>        -0.2276
     20 C20        -0.5501   -3.3053    6.6204 C.ar      1 <0>         0.1444
     21 O1         -1.7291   -3.7444    7.1333 O.3       1 <0>        -0.2995
     22 C21        -1.7554   -4.0508    8.5288 C.3       1 <0>         0.0221
     23 O2          0.8215   -2.1204    3.4485 O.3       1 <0>        -0.3067
     24 N1         -4.7698   -3.3688    1.6634 N.2       1 <0>        -1.0932
     25 S1         -6.3121   -3.5921    2.2237 S.o2      1 <0>         2.5247
     26 O3         -6.2928   -4.8733    2.8380 O.2       1 <0>        -1.0290
     27 O4         -6.5928   -2.4269    2.9870 O.2       1 <0>        -1.0287
     28 C22        -7.3481   -3.6285    0.7351 C.3       1 <0>        -0.6374
     29 C23         0.0274   -2.8172   -2.5157 C.3       1 <0>        -0.1109
     30 H1          1.0042    1.8801    0.0026 H         1 <0>         0.0663
     31 H2         -0.5455    1.8639   -0.8728 H         1 <0>         0.0634
     32 H3         -0.5286    1.8543    0.9071 H         1 <0>         0.0662
     33 H4         -0.0064   -0.1436   -2.1312 H         1 <0>         0.1174
     34 H5          0.0540   -3.8484   -0.0191 H         1 <0>         0.1230
     35 H6          0.0245   -0.1667    2.1335 H         1 <0>         0.1243
     36 H7          0.5070   -3.8226    2.3284 H         1 <0>         0.0800
     37 H8         -2.2300   -3.0197    1.0277 H         1 <0>         0.1192
     38 H9         -4.9479   -3.5575    4.2899 H         1 <0>         0.1042
     39 H10        -3.0748   -3.4115    5.8823 H         1 <0>         0.1287
     40 H11         2.7965   -2.0213    5.1824 H         1 <0>         0.1270
     41 H12         2.6213   -2.6229    7.5594 H         1 <0>         0.1246
     42 H13         0.4914   -3.4206    8.4886 H         1 <0>         0.1248
     43 H14        -1.0321   -4.8379    8.7417 H         1 <0>         0.0523
     44 H15        -1.5010   -3.1589    9.1015 H         1 <0>         0.0524
     45 H16        -2.7533   -4.3892    8.8077 H         1 <0>         0.0970
     46 H17        -7.0304   -4.4486    0.0912 H         1 <0>         0.1152
     47 H18        -8.3899   -3.7737    1.0209 H         1 <0>         0.1012
     48 H19        -7.2467   -2.6851    0.1986 H         1 <0>         0.1152
     49 H20         1.0557   -2.9831   -2.8370 H         1 <0>         0.0660
     50 H21        -0.4727   -3.7772   -2.3878 H         1 <0>         0.0672
     51 H22        -0.4985   -2.2310   -3.2693 H         1 <0>         0.0638
@<TRIPOS>BOND
     1    1    2 1
     2    1   30 1
     3    1   31 1
     4    1   32 1
     5    2    7 ar
     6    2    3 ar
     7    3    4 ar
     8    3   33 1
     9    4    5 ar
    10    4   29 1
    11    5    6 ar
    12    5   34 1
    13    6    7 ar
    14    6    8 1
    15    7   35 1
    16    8   23 1
    17    8    9 1
    18    8   36 1
    19    9   14 ar
    20    9   10 ar
    21   10   11 ar
    22   10   37 1
    23   11   12 ar
    24   11   24 1
    25   12   13 ar
    26   12   38 1
    27   13   14 ar
    28   13   39 1
    29   14   15 1
    30   15   20 ar
    31   15   16 ar
    32   16   17 ar
    33   16   23 1
    34   17   18 ar
    35   17   40 1
    36   18   19 ar
    37   18   41 1
    38   19   20 ar
    39   19   42 1
    40   20   21 1
    41   21   22 1
    42   22   43 1
    43   22   44 1
    44   22   45 1
    45   24   25 1
    46   25   26 2
    47   25   27 2
    48   25   28 1
    49   28   46 1
    50   28   47 1
    51   28   48 1
    52   29   49 1
    53   29   50 1
    54   29   51 1
@<TRIPOS>MOLECULE
CHEMBL293452__1
   51    54     0     0     0
SMALL
USER_CHARGES

@<TRIPOS>ATOM
      1 C1         -0.0184    1.5028    0.0103 C.3       1 <0>        -0.1108
      2 C2          0.0021   -0.0041    0.0020 C.ar      1 <0>        -0.0850
      3 C3          0.0057   -0.6887   -1.1989 C.ar      1 <0>        -0.1230
      4 C4          0.0245   -2.0708   -1.2065 C.ar      1 <0>        -0.0864
      5 C5          0.0400   -2.7685   -0.0132 C.ar      1 <0>        -0.1072
      6 C6          0.0373   -2.0839    1.1877 C.ar      1 <0>        -0.0919
      7 C7          0.0229   -0.7016    1.1953 C.ar      1 <0>        -0.1100
      8 C8          0.0537   -2.8444    2.4887 C.3       1 <0>         0.1850
      9 C9          1.4612   -2.8860    3.0234 C.ar      1 <0>        -0.0721
     10 C10         2.3166   -3.9114    2.6884 C.ar      1 <0>        -0.1635
     11 C11         3.6168   -3.9179    3.1816 C.ar      1 <0>         0.2956
     12 C12         4.0579   -2.8923    4.0099 C.ar      1 <0>        -0.2575
     13 C13         3.2024   -1.8650    4.3538 C.ar      1 <0>        -0.0346
     14 C14         1.9003   -1.8634    3.8685 C.ar      1 <0>        -0.1498
     15 C15         0.9323   -0.8073    4.2445 C.ar      1 <0>        -0.0935
     16 C16        -0.4239   -1.0254    3.9687 C.ar      1 <0>         0.1494
     17 C17        -1.3505   -0.0479    4.2874 C.ar      1 <0>        -0.1778
     18 C18        -0.9399    1.1239    4.8974 C.ar      1 <0>        -0.0747
     19 C19         0.3935    1.3300    5.1983 C.ar      1 <0>        -0.2287
     20 C20         1.3369    0.3643    4.8773 C.ar      1 <0>         0.1445
     21 O1          2.6469    0.5611    5.1792 O.3       1 <0>        -0.2991
     22 C21         2.9858    1.7881    5.8286 C.3       1 <0>         0.0220
     23 O2         -0.8153   -2.2033    3.4207 O.3       1 <0>        -0.3025
     24 N1          4.4836   -4.9593    2.8429 N.2       1 <0>        -1.0950
     25 S1          6.0327   -4.9708    3.4282 S.o2      1 <0>         2.5255
     26 O3          6.6435   -3.8205    2.8598 O.2       1 <0>        -1.0286
     27 O4          5.8874   -5.0927    4.8364 O.2       1 <0>        -1.0285
     28 C22         6.7782   -6.4765    2.7443 C.3       1 <0>        -0.6375
     29 C23         0.0274   -2.8172   -2.5157 C.3       1 <0>        -0.1107
     30 H1          1.0042    1.8801    0.0026 H         1 <0>         0.0680
     31 H2         -0.5455    1.8639   -0.8728 H         1 <0>         0.0626
     32 H3         -0.5286    1.8543    0.9071 H         1 <0>         0.0645
     33 H4         -0.0064   -0.1436   -2.1312 H         1 <0>         0.1168
     34 H5          0.0540   -3.8484   -0.0191 H         1 <0>         0.1236
     35 H6          0.0245   -0.1667    2.1335 H         1 <0>         0.1283
     36 H7         -0.2928   -3.8631    2.3148 H         1 <0>         0.1268
     37 H8          1.9783   -4.7095    2.0441 H         1 <0>         0.1154
     38 H9          5.0707   -2.8994    4.3849 H         1 <0>         0.1044
     39 H10         3.5432   -1.0669    4.9967 H         1 <0>         0.1286
     40 H11        -2.3951   -0.2000    4.0592 H         1 <0>         0.1273
     41 H12        -1.6673    1.8843    5.1403 H         1 <0>         0.1247
     42 H13         0.7015    2.2441    5.6841 H         1 <0>         0.1250
     43 H14         2.7028    2.6263    5.1919 H         1 <0>         0.0522
     44 H15         2.4532    1.8563    6.7771 H         1 <0>         0.0526
     45 H16         4.0598    1.8175    6.0120 H         1 <0>         0.0971
     46 H17         6.7589   -6.4293    1.6555 H         1 <0>         0.1151
     47 H18         7.8100   -6.5586    3.0862 H         1 <0>         0.1014
     48 H19         6.2138   -7.3463    3.0804 H         1 <0>         0.1154
     49 H20         1.0557   -2.9831   -2.8370 H         1 <0>         0.0695
     50 H21        -0.4727   -3.7772   -2.3878 H         1 <0>         0.0651
     51 H22        -0.4985   -2.2310   -3.2693 H         1 <0>         0.0619
@<TRIPOS>BOND
     1    1    2 1
     2    1   30 1
     3    1   31 1
     4    1   32 1
     5    2    7 ar
     6    2    3 ar
     7    3    4 ar
     8    3   33 1
     9    4    5 ar
    10    4   29 1
    11    5    6 ar
    12    5   34 1
    13    6    7 ar
    14    6    8 1
    15    7   35 1
    16    8   23 1
    17    8    9 1
    18    8   36 1
    19    9   14 ar
    20    9   10 ar
    21   10   11 ar
    22   10   37 1
    23   11   12 ar
    24   11   24 1
    25   12   13 ar
    26   12   38 1
    27   13   14 ar
    28   13   39 1
    29   14   15 1
    30   15   20 ar
    31   15   16 ar
    32   16   17 ar
    33   16   23 1
    34   17   18 ar
    35   17   40 1
    36   18   19 ar
    37   18   41 1
    38   19   20 ar
    39   19   42 1
    40   20   21 1
    41   21   22 1
    42   22   43 1
    43   22   44 1
    44   22   45 1
    45   24   25 1
    46   25   26 2
    47   25   27 2
    48   25   28 1
    49   28   46 1
    50   28   47 1
    51   28   48 1
    52   29   49 1
    53   29   50 1
    54   29   51 1
@<TRIPOS>MOLECULE
CHEMBL550008
   50    52     0     0     0
SMALL
USER_CHARGES

@<TRIPOS>ATOM
      1 C1          0.1639    1.0529   -0.4329 C.3       1 <0>        -0.0455
      2 N1          0.1570   -0.4080   -0.2789 N.4       1 <0>        -0.3909
      3 C2         -1.2373   -0.8938   -0.2037 C.3       1 <0>        -0.0100
      4 C3         -1.1935   -2.0673    0.8066 C.3       1 <0>        -0.1814
      5 C4         -0.1595   -1.5512    1.8416 C.3       1 <0>         0.1465
      6 H1         -0.6346   -0.8849    2.5617 H         1 <0>         0.1311
      7 C5          0.8512   -0.7788    0.9679 C.3       1 <0>        -0.0479
      8 N2          0.4915   -2.6710    2.5260 N.pl3     1 <0>        -0.6023
      9 C6          0.4274   -2.7743    3.9860 C.3       1 <0>         0.1179
     10 C7         -0.7221   -3.7033    4.3815 C.3       1 <0>        -0.1097
     11 C8         -2.0543   -3.0637    3.9851 C.3       1 <0>        -0.1133
     12 C9         -3.2038   -3.9927    4.3806 C.3       1 <0>        -0.1210
     13 C10        -3.1777   -4.2209    5.8933 C.3       1 <0>        -0.1227
     14 C11        -1.8455   -4.8606    6.2897 C.3       1 <0>        -0.1211
     15 C12        -0.6960   -3.9315    5.8941 C.3       1 <0>        -0.1143
     16 C13         1.1710   -3.6368    1.7892 C.ar      1 <0>         0.2493
     17 C14         1.2357   -3.5338    0.4022 C.ar      1 <0>        -0.2244
     18 C15         1.9063   -4.4863   -0.3302 C.ar      1 <0>        -0.0066
     19 C16         2.5239   -5.5594    0.3198 C.ar      1 <0>        -0.0616
     20 C17         2.4573   -5.6604    1.7138 C.ar      1 <0>         0.0604
     21 C18         1.7885   -4.6992    2.4409 C.ar      1 <0>        -0.1776
     22 Cl1         3.2214   -6.9905    2.5267 Cl        1 <0>        -0.0290
     23 C19         3.2223   -6.5527   -0.4393 C.1       1 <0>         0.2372
     24 N3          3.7763   -7.3407   -1.0415 N.1       1 <0>        -0.3852
     25 H2          1.1933    1.4092   -0.4725 H         1 <0>         0.1246
     26 H3         -0.3499    1.3234   -1.3553 H         1 <0>         0.1260
     27 H4         -0.3465    1.5100    0.4148 H         1 <0>         0.1235
     28 H5         -1.8951   -0.1044    0.1599 H         1 <0>         0.1383
     29 H6         -1.5696   -1.2461   -1.1803 H         1 <0>         0.1408
     30 H7         -2.1679   -2.2195    1.2707 H         1 <0>         0.1266
     31 H8         -0.8436   -2.9818    0.3278 H         1 <0>         0.1185
     32 H9          1.7070   -1.4146    0.7408 H         1 <0>         0.1456
     33 H10         1.1819    0.1194    1.4894 H         1 <0>         0.1419
     34 H11         1.3670   -3.1778    4.3633 H         1 <0>         0.0887
     35 H12         0.2590   -1.7857    4.4131 H         1 <0>         0.0885
     36 H13        -0.6106   -4.6583    3.8680 H         1 <0>         0.0799
     37 H14        -2.1658   -2.1087    4.4986 H         1 <0>         0.0610
     38 H15        -2.0729   -2.9011    2.9075 H         1 <0>         0.0589
     39 H16        -4.1528   -3.5371    4.0982 H         1 <0>         0.0620
     40 H17        -3.0922   -4.9477    3.8671 H         1 <0>         0.0621
     41 H18        -3.2892   -3.2659    6.4068 H         1 <0>         0.0621
     42 H19        -3.9966   -4.8828    6.1751 H         1 <0>         0.0645
     43 H20        -1.8269   -5.0231    7.3673 H         1 <0>         0.0669
     44 H21        -1.7340   -5.8155    5.7762 H         1 <0>         0.0634
     45 H22         0.2530   -4.3872    6.1765 H         1 <0>         0.0664
     46 H23        -0.8076   -2.9765    6.4076 H         1 <0>         0.0655
     47 H24         0.7584   -2.7051   -0.0997 H         1 <0>         0.1210
     48 H25         1.9554   -4.4053   -1.4061 H         1 <0>         0.1462
     49 H26         1.7400   -4.7735    3.5172 H         1 <0>         0.1512
     50 H27         0.6215   -0.8354   -1.0662 H         1 <0>         0.4282
@<TRIPOS>BOND
     1    1    2 1
     2    1   25 1
     3    1   26 1
     4    1   27 1
     5    2    7 1
     6    2    3 1
     7    2   50 1
     8    3    4 1
     9    3   28 1
    10    3   29 1
    11    4    5 1
    12    4   30 1
    13    4   31 1
    14    5    6 1
    15    5    7 1
    16    5    8 1
    17    7   32 1
    18    7   33 1
    19    8    9 1
    20    8   16 1
    21    9   10 1
    22    9   34 1
    23    9   35 1
    24   10   15 1
    25   10   11 1
    26   10   36 1
    27   11   12 1
    28   11   37 1
    29   11   38 1
    30   12   13 1
    31   12   39 1
    32   12   40 1
    33   13   14 1
    34   13   41 1
    35   13   42 1
    36   14   15 1
    37   14   43 1
    38   14   44 1
    39   15   45 1
    40   15   46 1
    41   16   21 ar
    42   16   17 ar
    43   17   18 ar
    44   17   47 1
    45   18   19 ar
    46   18   48 1
    47   19   20 ar
    48   19   23 1
    49   20   21 ar
    50   20   22 1
    51   21   49 1
    52   23   24 3
@<TRIPOS>MOLECULE
CHEMBL550008__1
   49    51     0     0     0
SMALL
USER_CHARGES

@<TRIPOS>ATOM
      1 C1         -0.1594    1.5483    0.0972 C.3       1 <0>         0.0188
      2 N1         -0.1706    0.0795    0.0753 N.3       1 <0>        -0.5305
      3 C2         -1.5513   -0.4412    0.1655 C.3       1 <0>         0.0390
      4 C3         -1.4251   -1.7602    0.9680 C.3       1 <0>        -0.1581
      5 C4         -0.3261   -1.3950    2.0002 C.3       1 <0>         0.1339
      6 H1         -0.7559   -0.8628    2.8488 H         1 <0>         0.0988
      7 C5          0.6131   -0.4716    1.1961 C.3       1 <0>         0.0153
      8 N2          0.3824   -2.5961    2.4494 N.pl3     1 <0>        -0.6011
      9 C6          0.4084   -2.9420    3.8727 C.3       1 <0>         0.1178
     10 C7          1.5275   -2.1628    4.5666 C.3       1 <0>        -0.1044
     11 C8          2.8777   -2.5760    3.9774 C.3       1 <0>        -0.1125
     12 C9          3.9968   -1.7968    4.6712 C.3       1 <0>        -0.1190
     13 C10         3.9788   -2.1042    6.1699 C.3       1 <0>        -0.1211
     14 C11         2.6286   -1.6910    6.7591 C.3       1 <0>        -0.1180
     15 C12         1.5095   -2.4702    6.0653 C.3       1 <0>        -0.1133
     16 C13         1.0308   -3.4086    1.5238 C.ar      1 <0>         0.2598
     17 C14         1.0098   -3.0751    0.1722 C.ar      1 <0>        -0.2084
     18 C15         1.6495   -3.8755   -0.7464 C.ar      1 <0>        -0.0095
     19 C16         2.3218   -5.0257   -0.3214 C.ar      1 <0>        -0.0858
     20 C17         2.3413   -5.3584    1.0376 C.ar      1 <0>         0.0554
     21 C18         1.7030   -4.5485    1.9522 C.ar      1 <0>        -0.1939
     22 Cl1         3.1736   -6.7852    1.5716 Cl        1 <0>        -0.0526
     23 C19         2.9882   -5.8611   -1.2746 C.1       1 <0>         0.2556
     24 N3          3.5168   -6.5239   -2.0307 N.1       1 <0>        -0.4150
     25 H2          0.8672    1.9051    0.0145 H         1 <0>         0.0705
     26 H3         -0.7447    1.9286   -0.7400 H         1 <0>         0.0717
     27 H4         -0.5924    1.9010    1.0332 H         1 <0>         0.0285
     28 H5         -2.1897    0.2657    0.6954 H         1 <0>         0.0513
     29 H6         -1.9480   -0.6394   -0.8303 H         1 <0>         0.0876
     30 H7         -2.3630   -2.0053    1.4664 H         1 <0>         0.0806
     31 H8         -1.1007   -2.5787    0.3254 H         1 <0>         0.0965
     32 H9          1.4570   -1.0447    0.8120 H         1 <0>         0.0975
     33 H10         0.9708    0.3382    1.8320 H         1 <0>         0.0606
     34 H11        -0.5487   -2.6850    4.3266 H         1 <0>         0.0781
     35 H12         0.5875   -4.0114    3.9835 H         1 <0>         0.0851
     36 H13         1.3756   -1.0944    4.4129 H         1 <0>         0.0718
     37 H14         3.0295   -3.6444    4.1310 H         1 <0>         0.0631
     38 H15         2.8905   -2.3570    2.9097 H         1 <0>         0.0648
     39 H16         4.9587   -2.0912    4.2515 H         1 <0>         0.0615
     40 H17         3.8450   -0.7284    4.5176 H         1 <0>         0.0586
     41 H18         4.1307   -3.1726    6.3236 H         1 <0>         0.0618
     42 H19         4.7761   -1.5491    6.6642 H         1 <0>         0.0600
     43 H20         2.6158   -1.9100    7.8268 H         1 <0>         0.0621
     44 H21         2.4768   -0.6226    6.6055 H         1 <0>         0.0601
     45 H22         0.5476   -2.1758    6.4850 H         1 <0>         0.0622
     46 H23         1.6613   -3.5385    6.2189 H         1 <0>         0.0648
     47 H24         0.4903   -2.1869   -0.1560 H         1 <0>         0.1647
     48 H25         1.6321   -3.6158   -1.7945 H         1 <0>         0.1412
     49 H26         1.7209   -4.8017    3.0019 H         1 <0>         0.1441
@<TRIPOS>BOND
     1    1    2 1
     2    1   25 1
     3    1   26 1
     4    1   27 1
     5    2    7 1
     6    2    3 1
     7    3    4 1
     8    3   28 1
     9    3   29 1
    10    4    5 1
    11    4   30 1
    12    4   31 1
    13    5    6 1
    14    5    7 1
    15    5    8 1
    16    7   32 1
    17    7   33 1
    18    8    9 1
    19    8   16 1
    20    9   10 1
    21    9   34 1
    22    9   35 1
    23   10   15 1
    24   10   11 1
    25   10   36 1
    26   11   12 1
    27   11   37 1
    28   11   38 1
    29   12   13 1
    30   12   39 1
    31   12   40 1
    32   13   14 1
    33   13   41 1
    34   13   42 1
    35   14   15 1
    36   14   43 1
    37   14   44 1
    38   15   45 1
    39   15   46 1
    40   16   21 ar
    41   16   17 ar
    42   17   18 ar
    43   17   47 1
    44   18   19 ar
    45   18   48 1
    46   19   20 ar
    47   19   23 1
    48   20   21 ar
    49   20   22 1
    50   21   49 1
    51   23   24 3
@<TRIPOS>MOLECULE
CHEMBL565274
   39    41     0     0     0
SMALL
USER_CHARGES

@<TRIPOS>ATOM
      1 C1         -0.0184    1.5028    0.0103 C.3       1 <0>        -0.1173
      2 C2          0.0021   -0.0041    0.0020 C.ar      1 <0>        -0.0835
      3 C3          0.0058   -0.6879   -1.2007 C.ar      1 <0>        -0.1159
      4 C4          0.0245   -2.0708   -1.2160 C.ar      1 <0>        -0.1135
      5 C5          0.0396   -2.7766   -0.0300 C.ar      1 <0>        -0.1129
      6 C6          0.0364   -2.0931    1.1846 C.ar      1 <0>        -0.0469
      7 C7          0.0228   -0.6990    1.1939 C.ar      1 <0>        -0.1077
      8 C8          0.0526   -2.8457    2.4622 C.ar      1 <0>        -0.0178
      9 C9          0.0436   -2.1601    3.6771 C.ar      1 <0>        -0.1177
     10 C10         0.0585   -2.8586    4.8608 C.ar      1 <0>        -0.0667
     11 C11         0.0824   -4.2614    4.8537 C.ar      1 <0>        -0.0660
     12 C12         0.0909   -4.9431    3.6382 C.ar      1 <0>        -0.0462
     13 C13         0.0710   -4.2391    2.4512 C.ar      1 <0>        -0.0996
     14 C14         0.1169   -6.4316    3.8912 C.3       1 <0>        -0.0251
     15 C15         0.1239   -6.6114    5.4152 C.3       1 <0>        -0.1066
     16 C16         0.1015   -5.2129    5.9826 C.2       1 <0>         0.1746
     17 N1          0.1001   -4.9021    7.2386 N.2       1 <0>        -0.3252
     18 O1          0.1205   -5.9223    8.2204 O.3       1 <0>        -0.4055
     19 C17        -1.1277   -7.0882    3.2906 C.3       1 <0>        -0.1386
     20 C18         1.3801   -7.0454    3.2842 C.3       1 <0>        -0.1385
     21 H1          1.0042    1.8801    0.0026 H         1 <0>         0.0722
     22 H2         -0.5455    1.8639   -0.8728 H         1 <0>         0.0681
     23 H3         -0.5286    1.8543    0.9071 H         1 <0>         0.0674
     24 H4         -0.0064   -0.1398   -2.1312 H         1 <0>         0.1236
     25 H5          0.0269   -2.5994   -2.1578 H         1 <0>         0.1258
     26 H6          0.0535   -3.8565   -0.0432 H         1 <0>         0.1257
     27 H7          0.0244   -0.1641    2.1321 H         1 <0>         0.1263
     28 H8          0.0252   -1.0803    3.6876 H         1 <0>         0.1332
     29 H9          0.0522   -2.3255    5.8001 H         1 <0>         0.1312
     30 H10         0.0738   -4.7698    1.5106 H         1 <0>         0.1306
     31 H11        -0.7605   -7.1626    5.7345 H         1 <0>         0.0965
     32 H12         1.0283   -7.1321    5.7299 H         1 <0>         0.0965
     33 H13         0.1177   -5.5933    9.1297 H         1 <0>         0.4061
     34 H14        -1.1507   -6.9082    2.2158 H         1 <0>         0.0625
     35 H15        -1.0989   -8.1615    3.4787 H         1 <0>         0.0649
     36 H16        -2.0202   -6.6627    3.7494 H         1 <0>         0.0594
     37 H17         2.2599   -6.5897    3.7384 H         1 <0>         0.0594
     38 H18         1.3889   -8.1190    3.4723 H         1 <0>         0.0649
     39 H19         1.3914   -6.8649    2.2093 H         1 <0>         0.0625
@<TRIPOS>BOND
     1    1    2 1
     2    1   21 1
     3    1   22 1
     4    1   23 1
     5    2    7 ar
     6    2    3 ar
     7    3    4 ar
     8    3   24 1
     9    4    5 ar
    10    4   25 1
    11    5    6 ar
    12    5   26 1
    13    6    7 ar
    14    6    8 1
    15    7   27 1
    16    8   13 ar
    17    8    9 ar
    18    9   10 ar
    19    9   28 1
    20   10   11 ar
    21   10   29 1
    22   11   16 1
    23   11   12 ar
    24   12   13 ar
    25   12   14 1
    26   13   30 1
    27   14   15 1
    28   14   19 1
    29   14   20 1
    30   15   16 1
    31   15   31 1
    32   15   32 1
    33   16   17 2
    34   17   18 1
    35   18   33 1
    36   19   34 1
    37   19   35 1
    38   19   36 1
    39   20   37 1
    40   20   38 1
    41   20   39 1
@<TRIPOS>MOLECULE
CHEMBL427554
   62    65     0     0     0
SMALL
USER_CHARGES

@<TRIPOS>ATOM
      1 C1          0.0811    1.3470    0.8037 C.3       1 <0>        -0.1414
      2 C2          0.0223   -0.0613    0.2087 C.3       1 <0>        -0.0170
      3 C3          0.8897   -1.0047    1.0445 C.3       1 <0>        -0.1619
      4 C4         -1.4248   -0.5581    0.2162 C.3       1 <0>        -0.1316
      5 C5         -2.1382   -0.0322    1.4633 C.3       1 <0>         0.1345
      6 C6         -1.3448   -0.4289    2.7100 C.3       1 <0>        -0.1150
      7 C7         -2.1524   -0.0783    3.9613 C.3       1 <0>        -0.0898
      8 C8         -1.3711   -0.4690    5.1893 C.ar      1 <0>        -0.0836
      9 C9         -1.5147   -1.7347    5.7262 C.ar      1 <0>        -0.1173
     10 C10        -0.7979   -2.0931    6.8526 C.ar      1 <0>        -0.1168
     11 C11         0.0628   -1.1860    7.4417 C.ar      1 <0>        -0.1223
     12 C12         0.2071    0.0794    6.9043 C.ar      1 <0>        -0.1173
     13 C13        -0.5064    0.4364    5.7754 C.ar      1 <0>        -0.1153
     14 C14        -3.5215   -0.6253    1.5384 C.2       1 <0>         0.4928
     15 O1         -3.7572   -1.6848    0.9973 O.2       1 <0>        -0.5001
     16 N1         -4.4967    0.0217    2.2069 N.am      1 <0>        -0.6663
     17 C15        -5.7441   -0.5783    2.3733 C.ar      1 <0>         0.1910
     18 C16        -5.8361   -1.9583    2.5292 C.ar      1 <0>        -0.1309
     19 C17        -7.0648   -2.5570    2.6940 C.ar      1 <0>        -0.0084
     20 C18        -8.2233   -1.7757    2.7047 C.ar      1 <0>        -0.2137
     21 C19        -8.1232   -0.3883    2.5473 C.ar      1 <0>        -0.0797
     22 C20        -6.8958    0.2045    2.3890 C.ar      1 <0>        -0.1274
     23 C21        -9.5328    0.1432    2.6062 C.3       1 <0>         0.0914
     24 O2        -10.3901   -0.9853    2.7980 O.3       1 <0>        -0.3145
     25 C22        -9.6497   -2.1050    2.8574 C.2       1 <0>         0.5230
     26 O3        -10.0928   -3.2254    3.0147 O.2       1 <0>        -0.4484
     27 O4         -2.2336    1.3919    1.3926 O.3       1 <0>        -0.5389
     28 C23         0.5354   -0.0300   -1.2079 C.ar      1 <0>        -0.0673
     29 C24        -0.2880   -0.4137   -2.2499 C.ar      1 <0>        -0.1277
     30 C25         0.1826   -0.3849   -3.5493 C.ar      1 <0>        -0.1168
     31 C26         1.4765    0.0280   -3.8068 C.ar      1 <0>        -0.1256
     32 C27         2.2996    0.4126   -2.7649 C.ar      1 <0>        -0.1172
     33 C28         1.8276    0.3879   -1.4659 C.ar      1 <0>        -0.1144
     34 H1          1.0808    1.7586    0.6651 H         1 <0>         0.0450
     35 H2         -0.6470    1.9842    0.3017 H         1 <0>         0.0674
     36 H3         -0.1488    1.3016    1.8682 H         1 <0>         0.0778
     37 H4          0.4844   -1.0721    2.0542 H         1 <0>         0.0762
     38 H5          0.8940   -1.9945    0.5880 H         1 <0>         0.0571
     39 H6          1.9085   -0.6196    1.0869 H         1 <0>         0.0590
     40 H7         -1.9376   -0.1967   -0.6752 H         1 <0>         0.0811
     41 H8         -1.4347   -1.6480    0.2243 H         1 <0>         0.0912
     42 H9         -1.1509   -1.5013    2.6913 H         1 <0>         0.0887
     43 H10        -0.3982    0.1113    2.7254 H         1 <0>         0.1129
     44 H11        -2.3463    0.9941    3.9800 H         1 <0>         0.0834
     45 H12        -3.0991   -0.6185    3.9459 H         1 <0>         0.0708
     46 H13        -2.1872   -2.4435    5.2659 H         1 <0>         0.1186
     47 H14        -0.9107   -3.0817    7.2725 H         1 <0>         0.1218
     48 H15         0.6223   -1.4657    8.3222 H         1 <0>         0.1214
     49 H16         0.8793    0.7883    7.3648 H         1 <0>         0.1222
     50 H17        -0.3909    1.4237    5.3533 H         1 <0>         0.1223
     51 H18        -4.3307    0.9048    2.5721 H         1 <0>         0.4211
     52 H19        -4.9404   -2.5617    2.5206 H         1 <0>         0.1471
     53 H20        -7.1332   -3.6281    2.8144 H         1 <0>         0.1420
     54 H21        -6.8234    1.2758    2.2728 H         1 <0>         0.1407
     55 H22        -9.6357    0.8360    3.4414 H         1 <0>         0.1189
     56 H23        -9.7813    0.6458    1.6714 H         1 <0>         0.1184
     57 H24        -2.7249    1.7155    0.6251 H         1 <0>         0.3812
     58 H25        -1.2989   -0.7363   -2.0487 H         1 <0>         0.1259
     59 H26        -0.4604   -0.6854   -4.3633 H         1 <0>         0.1204
     60 H27         1.8444    0.0498   -4.8220 H         1 <0>         0.1201
     61 H28         3.3106    0.7349   -2.9661 H         1 <0>         0.1209
     62 H29         2.4694    0.6919   -0.6523 H         1 <0>         0.1206
@<TRIPOS>BOND
     1    1    2 1
     2    1   34 1
     3    1   35 1
     4    1   36 1
     5    2    3 1
     6    2    4 1
     7    2   28 1
     8    3   37 1
     9    3   38 1
    10    3   39 1
    11    4    5 1
    12    4   40 1
    13    4   41 1
    14    5    6 1
    15    5   14 1
    16    5   27 1
    17    6    7 1
    18    6   42 1
    19    6   43 1
    20    7    8 1
    21    7   44 1
    22    7   45 1
    23    8   13 ar
    24    8    9 ar
    25    9   10 ar
    26    9   46 1
    27   10   11 ar
    28   10   47 1
    29   11   12 ar
    30   11   48 1
    31   12   13 ar
    32   12   49 1
    33   13   50 1
    34   14   15 2
    35   14   16 am
    36   16   17 1
    37   16   51 1
    38   17   22 ar
    39   17   18 ar
    40   18   19 ar
    41   18   52 1
    42   19   20 ar
    43   19   53 1
    44   20   25 1
    45   20   21 ar
    46   21   22 ar
    47   21   23 1
    48   22   54 1
    49   23   24 1
    50   23   55 1
    51   23   56 1
    52   24   25 1
    53   25   26 2
    54   27   57 1
    55   28   33 ar
    56   28   29 ar
    57   29   30 ar
    58   29   58 1
    59   30   31 ar
    60   30   59 1
    61   31   32 ar
    62   31   60 1
    63   32   33 ar
    64   32   61 1
    65   33   62 1
@<TRIPOS>MOLECULE
CHEMBL427554__1
   62    65     0     0     0
SMALL
USER_CHARGES

@<TRIPOS>ATOM
      1 C1         -0.0954   -0.0661    2.4154 C.3       1 <0>        -0.1431
      2 C2         -0.6174   -1.2635    1.6188 C.3       1 <0>        -0.0291
      3 C3         -1.9558   -1.7202    2.2027 C.3       1 <0>        -0.1625
      4 C4         -0.8109   -0.8578    0.1563 C.3       1 <0>        -0.1339
      5 C5         -1.9274    0.1839    0.0595 C.3       1 <0>         0.1334
      6 C6         -1.8713    0.8659   -1.3090 C.3       1 <0>        -0.0926
      7 C7         -0.5222    1.5686   -1.4737 C.3       1 <0>        -0.0759
      8 C8         -0.5129    2.3411   -2.7676 C.ar      1 <0>        -0.0842
      9 C9         -0.0833    1.7332   -3.9324 C.ar      1 <0>        -0.1174
     10 C10        -0.0748    2.4419   -5.1193 C.ar      1 <0>        -0.1182
     11 C11        -0.4962    3.7582   -5.1414 C.ar      1 <0>        -0.1237
     12 C12        -0.9266    4.3658   -3.9768 C.ar      1 <0>        -0.1186
     13 C13        -0.9392    3.6559   -2.7907 C.ar      1 <0>        -0.1157
     14 C14        -3.2627   -0.4937    0.2287 C.2       1 <0>         0.5021
     15 O1         -3.6775   -1.2400   -0.6326 O.2       1 <0>        -0.4983
     16 N1         -3.9961   -0.2703    1.3372 N.am      1 <0>        -0.6747
     17 C15        -5.1746   -0.9844    1.5489 C.ar      1 <0>         0.1887
     18 C16        -5.9849   -1.3239    0.4694 C.ar      1 <0>        -0.1291
     19 C17        -7.1499   -2.0289    0.6717 C.ar      1 <0>        -0.0101
     20 C18        -7.5196   -2.4046    1.9658 C.ar      1 <0>        -0.2114
     21 C19        -6.6998   -2.0598    3.0468 C.ar      1 <0>        -0.0813
     22 C20        -5.5366   -1.3619    2.8397 C.ar      1 <0>        -0.1259
     23 C21        -7.3763   -2.6078    4.2778 C.3       1 <0>         0.0917
     24 O2         -8.5739   -3.2527    3.8360 O.3       1 <0>        -0.3144
     25 C22        -8.6738   -3.1453    2.5004 C.2       1 <0>         0.5228
     26 O3         -9.5835   -3.5943    1.8317 O.2       1 <0>        -0.4477
     27 O4         -1.7562    1.1625    1.0867 O.3       1 <0>        -0.5460
     28 C23         0.3774   -2.3927    1.6994 C.ar      1 <0>        -0.0686
     29 C24         0.9566   -2.8872    0.5457 C.ar      1 <0>        -0.1219
     30 C25         1.8690   -3.9230    0.6197 C.ar      1 <0>        -0.1156
     31 C26         2.2026   -4.4639    1.8473 C.ar      1 <0>        -0.1230
     32 C27         1.6241   -3.9688    3.0010 C.ar      1 <0>        -0.1167
     33 C28         0.7148   -2.9301    2.9274 C.ar      1 <0>        -0.1161
     34 H1          0.6302   -0.4089    3.1531 H         1 <0>         0.0600
     35 H2          0.3824    0.6410    1.7373 H         1 <0>         0.0764
     36 H3         -0.9267    0.4227    2.9234 H         1 <0>         0.0572
     37 H4         -2.5308   -0.8494    2.5177 H         1 <0>         0.0586
     38 H5         -2.5142   -2.2697    1.4450 H         1 <0>         0.0626
     39 H6         -1.7757   -2.3668    3.0616 H         1 <0>         0.0693
     40 H7          0.1163   -0.4335   -0.2288 H         1 <0>         0.0971
     41 H8         -1.0807   -1.7351   -0.4315 H         1 <0>         0.0880
     42 H9         -1.9894    0.1178   -2.0929 H         1 <0>         0.0911
     43 H10        -2.6743    1.5993   -1.3826 H         1 <0>         0.0770
     44 H11        -0.3652    2.2536   -0.6405 H         1 <0>         0.0867
     45 H12         0.2751    0.8255   -1.4884 H         1 <0>         0.0755
     46 H13         0.2459    0.7048   -3.9151 H         1 <0>         0.1209
     47 H14         0.2615    1.9671   -6.0292 H         1 <0>         0.1216
     48 H15        -0.4888    4.3120   -6.0686 H         1 <0>         0.1209
     49 H16        -1.2556    5.3944   -3.9940 H         1 <0>         0.1214
     50 H17        -1.2790    4.1295   -1.8815 H         1 <0>         0.1216
     51 H18        -3.7039    0.3872    1.9877 H         1 <0>         0.4132
     52 H19        -5.6988   -1.0329   -0.5305 H         1 <0>         0.1536
     53 H20        -7.7768   -2.2906   -0.1678 H         1 <0>         0.1423
     54 H21        -4.9051   -1.1024    3.6765 H         1 <0>         0.1400
     55 H22        -6.7249   -3.3286    4.7718 H         1 <0>         0.1181
     56 H23        -7.6208   -1.7952    4.9620 H         1 <0>         0.1187
     57 H24        -1.9819    0.8466    1.9724 H         1 <0>         0.3739
     58 H25         0.6960   -2.4646   -0.4134 H         1 <0>         0.1249
     59 H26         2.3210   -4.3098   -0.2817 H         1 <0>         0.1222
     60 H27         2.9150   -5.2736    1.9050 H         1 <0>         0.1213
     61 H28         1.8844   -4.3916    3.9600 H         1 <0>         0.1218
     62 H29         0.2656   -2.5408    3.8291 H         1 <0>         0.1210
@<TRIPOS>BOND
     1    1    2 1
     2    1   34 1
     3    1   35 1
     4    1   36 1
     5    2    3 1
     6    2    4 1
     7    2   28 1
     8    3   37 1
     9    3   38 1
    10    3   39 1
    11    4    5 1
    12    4   40 1
    13    4   41 1
    14    5    6 1
    15    5   14 1
    16    5   27 1
    17    6    7 1
    18    6   42 1
    19    6   43 1
    20    7    8 1
    21    7   44 1
    22    7   45 1
    23    8   13 ar
    24    8    9 ar
    25    9   10 ar
    26    9   46 1
    27   10   11 ar
    28   10   47 1
    29   11   12 ar
    30   11   48 1
    31   12   13 ar
    32   12   49 1
    33   13   50 1
    34   14   15 2
    35   14   16 am
    36   16   17 1
    37   16   51 1
    38   17   22 ar
    39   17   18 ar
    40   18   19 ar
    41   18   52 1
    42   19   20 ar
    43   19   53 1
    44   20   25 1
    45   20   21 ar
    46   21   22 ar
    47   21   23 1
    48   22   54 1
    49   23   24 1
    50   23   55 1
    51   23   56 1
    52   24   25 1
    53   25   26 2
    54   27   57 1
    55   28   33 ar
    56   28   29 ar
    57   29   30 ar
    58   29   58 1
    59   30   31 ar
    60   30   59 1
    61   31   32 ar
    62   31   60 1
    63   32   33 ar
    64   32   61 1
    65   33   62 1
@<TRIPOS>MOLECULE
CHEMBL500897
   77    81     0     0     0
SMALL
USER_CHARGES

@<TRIPOS>ATOM
      1 C1         -0.5847    1.4462    0.8775 C.3       1 <0>        -0.1594
      2 C2         -0.5856   -0.0658    0.6435 C.3       1 <0>        -0.0892
      3 H1         -1.6088   -0.4412    0.6292 H         1 <0>         0.0928
      4 C3          0.1228   -0.3980   -0.6982 C.3       1 <0>        -0.1122
      5 C4          0.8618   -1.7029   -0.3818 C.3       1 <0>        -0.0833
      6 H2          0.1622   -2.5384   -0.3564 H         1 <0>         0.0876
      7 C5          2.0401   -2.0293   -1.2812 C.3       1 <0>        -0.0993
      8 H3          2.7654   -1.2164   -1.2468 H         1 <0>         0.1154
      9 C6          1.5563   -2.2292   -2.7188 C.3       1 <0>        -0.1155
     10 C7          2.7530   -2.5193   -3.6303 C.3       1 <0>        -0.0950
     11 C8          3.5027   -3.7090   -3.0607 C.2       1 <0>        -0.0292
     12 C9          3.7812   -4.7333   -3.8550 C.2       1 <0>        -0.2208
     13 C10         4.4886   -5.9131   -3.3337 C.2       1 <0>         0.4076
     14 O1          4.7799   -6.8387   -4.0680 O.2       1 <0>        -0.4564
     15 C11         4.8360   -5.9488   -1.9030 C.2       1 <0>        -0.2091
     16 C12         4.5540   -4.9119   -1.1300 C.2       1 <0>        -0.0689
     17 C13         3.8974   -3.6648   -1.6141 C.3       1 <0>        -0.0314
     18 C14         2.6823   -3.3204   -0.7489 C.3       1 <0>         0.1611
     19 C15         3.1015   -3.1812    0.7114 C.3       1 <0>         0.0906
     20 H4          3.4631   -4.1446    1.0709 H         1 <0>         0.0735
     21 C16         1.9318   -2.7227    1.5968 C.3       1 <0>        -0.1328
     22 C17         1.4140   -1.4149    1.0401 C.3       1 <0>        -0.0405
     23 C18         0.2260   -0.7764    1.7552 C.3       1 <0>         0.1198
     24 C19         0.7058    0.2259    2.7731 C.2       1 <0>         0.3530
     25 O2          1.3569    1.1800    2.4207 O.2       1 <0>        -0.3988
     26 C20         0.3730    0.0377    4.2308 C.3       1 <0>         0.0213
     27 O3          0.8865    1.1391    4.9827 O.3       1 <0>        -0.5499
     28 O4         -0.5717   -1.7806    2.3855 O.3       1 <0>        -0.3453
     29 C21        -1.7676   -1.3962    2.8702 C.2       1 <0>         0.6422
     30 O5         -2.1322   -0.2439    2.7446 O.2       1 <0>        -0.5555
     31 N1         -2.5603   -2.2895    3.4948 N.am      1 <0>        -0.7023
     32 C22        -3.8615   -1.8712    4.0222 C.3       1 <0>         0.2022
     33 H5         -3.7917   -0.8484    4.3925 H         1 <0>         0.1019
     34 C23        -4.9090   -1.9403    2.9092 C.3       1 <0>        -0.1619
     35 C24        -4.2647   -2.7870    5.1491 C.ar      1 <0>        -0.0982
     36 C25        -4.0201   -4.1444    5.0578 C.ar      1 <0>        -0.1135
     37 C26        -4.3899   -4.9845    6.0914 C.ar      1 <0>        -0.1144
     38 C27        -5.0039   -4.4670    7.2166 C.ar      1 <0>        -0.1150
     39 C28        -5.2477   -3.1094    7.3084 C.ar      1 <0>        -0.1142
     40 C29        -4.8740   -2.2688    6.2766 C.ar      1 <0>        -0.1051
     41 C30         2.5711   -0.4176    0.9551 C.3       1 <0>        -0.1677
     42 O6          4.1577   -2.2232    0.8039 O.3       1 <0>        -0.5397
     43 F1          1.7598   -4.3676   -0.8465 F         1 <0>        -0.1924
     44 C31         4.8890   -2.5136   -1.4350 C.3       1 <0>        -0.1364
     45 H6          0.4416    1.8132    0.8776 H         1 <0>         0.0812
     46 H7         -1.1461    1.9372    0.0827 H         1 <0>         0.0576
     47 H8         -1.0490    1.6653    1.8390 H         1 <0>         0.0646
     48 H9         -0.6077   -0.5513   -1.4925 H         1 <0>         0.0763
     49 H10         0.8275    0.3888   -0.9674 H         1 <0>         0.0804
     50 H11         0.8615   -3.0683   -2.7544 H         1 <0>         0.0742
     51 H12         1.0509   -1.3258   -3.0603 H         1 <0>         0.0824
     52 H13         2.4020   -2.7525   -4.6355 H         1 <0>         0.0847
     53 H14         3.4107   -1.6506   -3.6618 H         1 <0>         0.0887
     54 H15         3.4858   -4.7014   -4.8933 H         1 <0>         0.1389
     55 H16         5.3196   -6.8194   -1.4852 H         1 <0>         0.1406
     56 H17         4.8157   -4.9736   -0.0840 H         1 <0>         0.1273
     57 H18         1.1340   -3.4650    1.5718 H         1 <0>         0.0884
     58 H19         2.2754   -2.5799    2.6213 H         1 <0>         0.0768
     59 H20        -0.7089   -0.0126    4.3529 H         1 <0>         0.0840
     60 H21         0.8226   -0.8882    4.5895 H         1 <0>         0.0754
     61 H22         0.7087    1.0845    5.9316 H         1 <0>         0.3847
     62 H23        -2.2692   -3.2093    3.5952 H         1 <0>         0.4068
     63 H24        -4.9788   -2.9631    2.5390 H         1 <0>         0.0620
     64 H25        -5.8771   -1.6291    3.3016 H         1 <0>         0.0734
     65 H26        -4.6174   -1.2779    2.0942 H         1 <0>         0.0680
     66 H27        -3.5404   -4.5488    4.1787 H         1 <0>         0.1209
     67 H28        -4.1995   -6.0451    6.0198 H         1 <0>         0.1255
     68 H29        -5.2935   -5.1234    8.0239 H         1 <0>         0.1247
     69 H30        -5.7277   -2.7051    8.1873 H         1 <0>         0.1263
     70 H31        -5.0611   -1.2076    6.3498 H         1 <0>         0.1260
     71 H32         2.1838    0.5667    0.6918 H         1 <0>         0.0729
     72 H33         3.0756   -0.3633    1.9198 H         1 <0>         0.0535
     73 H34         3.2783   -0.7455    0.1932 H         1 <0>         0.1093
     74 H35         4.4799   -2.0786    1.7041 H         1 <0>         0.3784
     75 H36         4.3464   -1.5690   -1.3981 H         1 <0>         0.0783
     76 H37         5.4420   -2.6515   -0.5059 H         1 <0>         0.0975
     77 H38         5.5853   -2.5000   -2.2736 H         1 <0>         0.0543
@<TRIPOS>BOND
     1    1    2 1
     2    1   45 1
     3    1   46 1
     4    1   47 1
     5    2    3 1
     6    2   23 1
     7    2    4 1
     8    4    5 1
     9    4   48 1
    10    4   49 1
    11    5    6 1
    12    5   22 1
    13    5    7 1
    14    7    8 1
    15    7   18 1
    16    7    9 1
    17    9   10 1
    18    9   50 1
    19    9   51 1
    20   10   11 1
    21   10   52 1
    22   10   53 1
    23   11   17 1
    24   11   12 2
    25   12   13 1
    26   12   54 1
    27   13   14 2
    28   13   15 1
    29   15   16 2
    30   15   55 1
    31   16   17 1
    32   16   56 1
    33   17   18 1
    34   17   44 1
    35   18   19 1
    36   18   43 1
    37   19   20 1
    38   19   21 1
    39   19   42 1
    40   21   22 1
    41   21   57 1
    42   21   58 1
    43   22   23 1
    44   22   41 1
    45   23   24 1
    46   23   28 1
    47   24   25 2
    48   24   26 1
    49   26   27 1
    50   26   59 1
    51   26   60 1
    52   27   61 1
    53   28   29 1
    54   29   30 2
    55   29   31 am
    56   31   32 1
    57   31   62 1
    58   32   33 1
    59   32   34 1
    60   32   35 1
    61   34   63 1
    62   34   64 1
    63   34   65 1
    64   35   40 ar
    65   35   36 ar
    66   36   37 ar
    67   36   66 1
    68   37   38 ar
    69   37   67 1
    70   38   39 ar
    71   38   68 1
    72   39   40 ar
    73   39   69 1
    74   40   70 1
    75   41   71 1
    76   41   72 1
    77   41   73 1
    78   42   74 1
    79   44   75 1
    80   44   76 1
    81   44   77 1
@<TRIPOS>MOLECULE
CHEMBL247902
   45    47     0     0     0
SMALL
USER_CHARGES

@<TRIPOS>ATOM
      1 C1          1.4509    1.4906    1.1501 C.3       1 <0>        -0.1544
      2 C2          1.3360    0.0007    0.8218 C.3       1 <0>        -0.1397
      3 C3          2.1982   -0.8042    1.7963 C.3       1 <0>         0.1733
      4 C4          1.9709   -2.2780    1.5719 C.ar      1 <0>        -0.1281
      5 C5          0.9570   -2.9428    2.2277 C.ar      1 <0>        -0.0960
      6 C6          0.7573   -4.2986    1.9965 C.ar      1 <0>         0.1447
      7 C7          1.5769   -4.9805    1.1059 C.ar      1 <0>        -0.1147
      8 C8          2.5955   -4.3139    0.4531 C.ar      1 <0>        -0.1226
      9 C9          2.7981   -2.9629    0.6895 C.ar      1 <0>         0.1480
     10 N1          3.8461   -2.2725    0.0641 N.am      1 <0>        -0.5631
     11 C10         4.1606   -1.0290    0.4791 C.2       1 <0>         0.6582
     12 O1          4.9770   -0.3758   -0.1403 O.2       1 <0>        -0.4998
     13 O2          3.5784   -0.5046    1.5732 O.3       1 <0>        -0.3272
     14 C11         4.5930   -2.8973   -1.0304 C.3       1 <0>         0.0849
     15 N2         -0.2697   -4.9774    2.6616 N.pl3     1 <0>        -0.6735
     16 C12        -1.0129   -5.9518    1.9897 C.ar      1 <0>         0.2223
     17 C13        -0.8465   -6.1345    0.6226 C.ar      1 <0>        -0.1791
     18 C14        -1.5821   -7.0980   -0.0390 C.ar      1 <0>        -0.0562
     19 C15        -2.4844   -7.8815    0.6571 C.ar      1 <0>        -0.1464
     20 C16        -2.6540   -7.7030    2.0189 C.ar      1 <0>         0.0131
     21 C17        -1.9159   -6.7439    2.6887 C.ar      1 <0>        -0.1008
     22 Cl1        -2.1228   -6.5249    4.3984 Cl        1 <0>        -0.0469
     23 Cl2        -3.7882   -8.6885    2.8884 Cl        1 <0>        -0.0433
     24 C18         1.8215   -0.4398    3.2338 C.3       1 <0>        -0.1123
     25 C19         2.6541   -1.2768    4.2070 C.3       1 <0>        -0.1579
     26 H1          2.5020    1.7783    1.1702 H         1 <0>         0.0651
     27 H2          0.9297    2.0715    0.3891 H         1 <0>         0.0612
     28 H3          1.0027    1.6836    2.1247 H         1 <0>         0.0629
     29 H4          0.2959   -0.3123    0.9131 H         1 <0>         0.0867
     30 H5          1.6799   -0.1744   -0.1975 H         1 <0>         0.0663
     31 H6          0.3200   -2.4117    2.9194 H         1 <0>         0.1396
     32 H7          1.4177   -6.0331    0.9239 H         1 <0>         0.1420
     33 H8          3.2325   -4.8438   -0.2396 H         1 <0>         0.1414
     34 H9          4.1141   -2.6583   -1.9799 H         1 <0>         0.0707
     35 H10         5.6156   -2.5200   -1.0342 H         1 <0>         0.0897
     36 H11         4.6051   -3.9783   -0.8914 H         1 <0>         0.0846
     37 H12        -0.4659   -4.7716    3.5890 H         1 <0>         0.4153
     38 H13        -0.1425   -5.5232    0.0775 H         1 <0>         0.1479
     39 H14        -1.4529   -7.2397   -1.1018 H         1 <0>         0.1419
     40 H15        -3.0581   -8.6341    0.1367 H         1 <0>         0.1425
     41 H16         2.0189    0.6185    3.4040 H         1 <0>         0.0884
     42 H17         0.7626   -0.6424    3.3944 H         1 <0>         0.0893
     43 H18         2.3382   -1.0671    5.2289 H         1 <0>         0.0621
     44 H19         2.5090   -2.3355    3.9919 H         1 <0>         0.0582
     45 H20         3.7084   -1.0242    4.0935 H         1 <0>         0.0620
@<TRIPOS>BOND
     1    1    2 1
     2    1   26 1
     3    1   27 1
     4    1   28 1
     5    2    3 1
     6    2   29 1
     7    2   30 1
     8    3   13 1
     9    3    4 1
    10    3   24 1
    11    4    9 ar
    12    4    5 ar
    13    5    6 ar
    14    5   31 1
    15    6    7 ar
    16    6   15 1
    17    7    8 ar
    18    7   32 1
    19    8    9 ar
    20    8   33 1
    21    9   10 1
    22   10   11 am
    23   10   14 1
    24   11   12 2
    25   11   13 1
    26   14   34 1
    27   14   35 1
    28   14   36 1
    29   15   16 1
    30   15   37 1
    31   16   21 ar
    32   16   17 ar
    33   17   18 ar
    34   17   38 1
    35   18   19 ar
    36   18   39 1
    37   19   20 ar
    38   19   40 1
    39   20   21 ar
    40   20   23 1
    41   21   22 1
    42   24   25 1
    43   24   41 1
    44   24   42 1
    45   25   43 1
    46   25   44 1
    47   25   45 1
@<TRIPOS>MOLECULE
CHEMBL503848
   77    81     0     0     0
SMALL
USER_CHARGES

@<TRIPOS>ATOM
      1 C1         -0.5631    1.4378    0.8785 C.3       1 <0>        -0.1594
      2 C2         -0.5665   -0.0739    0.6429 C.3       1 <0>        -0.0892
      3 H1         -1.5903   -0.4479    0.6298 H         1 <0>         0.0924
      4 C3          0.1394   -0.4057   -0.7002 C.3       1 <0>        -0.1123
      5 C4          0.8771   -1.7120   -0.3862 C.3       1 <0>        -0.0832
      6 H2          0.1763   -2.5465   -0.3606 H         1 <0>         0.0875
      7 C5          2.0535   -2.0392   -1.2877 C.3       1 <0>        -0.0993
      8 H3          2.7800   -1.2273   -1.2537 H         1 <0>         0.1154
      9 C6          1.5672   -2.2369   -2.7249 C.3       1 <0>        -0.1155
     10 C7          2.7621   -2.5278   -3.6384 C.3       1 <0>        -0.0950
     11 C8          3.5110   -3.7192   -3.0711 C.2       1 <0>        -0.0292
     12 C9          3.7868   -4.7430   -3.8669 C.2       1 <0>        -0.2208
     13 C10         4.4934   -5.9244   -3.3479 C.2       1 <0>         0.4077
     14 O1          4.7822   -6.8497   -4.0835 O.2       1 <0>        -0.4563
     15 C11         4.8429   -5.9619   -1.9178 C.2       1 <0>        -0.2091
     16 C12         4.5636   -4.9254   -1.1433 C.2       1 <0>        -0.0688
     17 C13         3.9080   -3.6770   -1.6251 C.3       1 <0>        -0.0314
     18 C14         2.6947   -3.3317   -0.7577 C.3       1 <0>         0.1611
     19 C15         3.1163   -3.1946    0.7021 C.3       1 <0>         0.0906
     20 H4          3.4771   -4.1588    1.0600 H         1 <0>         0.0735
     21 C16         1.9487   -2.7353    1.5897 C.3       1 <0>        -0.1325
     22 C17         1.4318   -1.4262    1.0351 C.3       1 <0>        -0.0406
     23 C18         0.2458   -0.7867    1.7526 C.3       1 <0>         0.1199
     24 C19         0.7286    0.2139    2.7708 C.2       1 <0>         0.3531
     25 O2          1.3805    1.1673    2.4184 O.2       1 <0>        -0.3991
     26 C20         0.3977    0.0247    4.2288 C.3       1 <0>         0.0210
     27 O3          0.9142    1.1245    4.9810 O.3       1 <0>        -0.5498
     28 O4         -0.5524   -1.7904    2.3832 O.3       1 <0>        -0.3464
     29 C21        -1.7469   -1.4048    2.8702 C.2       1 <0>         0.6401
     30 O5         -2.1104   -0.2521    2.7456 O.2       1 <0>        -0.5561
     31 N1         -2.5396   -2.2974    3.4958 N.am      1 <0>        -0.7041
     32 C22        -3.8393   -1.8779    4.0256 C.3       1 <0>         0.1613
     33 C23        -3.6528   -1.2844    5.4234 C.3       1 <0>        -0.1313
     34 C24        -5.0103   -0.8463    5.9768 C.3       1 <0>        -0.1175
     35 C25        -5.9431   -2.0564    6.0568 C.3       1 <0>        -0.1238
     36 C26        -6.1296   -2.6498    4.6589 C.3       1 <0>        -0.1161
     37 C27        -4.7722   -3.0880    4.1056 C.3       1 <0>        -0.1272
     38 C28         2.5902   -0.4304    0.9494 C.3       1 <0>        -0.1676
     39 O6          4.1740   -2.2381    0.7939 O.3       1 <0>        -0.5397
     40 F1          1.7706   -4.3775   -0.8550 F         1 <0>        -0.1924
     41 C29         4.9015   -2.5273   -1.4464 C.3       1 <0>        -0.1364
     42 H5          0.4638    1.8034    0.8773 H         1 <0>         0.0812
     43 H6         -1.1250    1.9305    0.0849 H         1 <0>         0.0575
     44 H7         -1.0256    1.6566    1.8409 H         1 <0>         0.0644
     45 H8         -0.5926   -0.5572   -1.4935 H         1 <0>         0.0762
     46 H9          0.8448    0.3803   -0.9696 H         1 <0>         0.0803
     47 H10         0.8712   -3.0750   -2.7602 H         1 <0>         0.0742
     48 H11         1.0626   -1.3325   -3.0647 H         1 <0>         0.0824
     49 H12         2.4092   -2.7595   -4.6433 H         1 <0>         0.0847
     50 H13         3.4210   -1.6601   -3.6701 H         1 <0>         0.0887
     51 H14         3.4899   -4.7097   -4.9048 H         1 <0>         0.1389
     52 H15         5.3260   -6.8336   -1.5016 H         1 <0>         0.1406
     53 H16         4.8268   -4.9885   -0.0978 H         1 <0>         0.1273
     54 H17         1.1498   -3.4764    1.5652 H         1 <0>         0.0884
     55 H18         2.2941   -2.5940    2.6138 H         1 <0>         0.0766
     56 H19        -0.6841   -0.0239    4.3526 H         1 <0>         0.0846
     57 H20         0.8463   -0.9023    4.5859 H         1 <0>         0.0751
     58 H21         0.7378    1.0692    5.9302 H         1 <0>         0.3844
     59 H22        -2.2494   -3.2177    3.5952 H         1 <0>         0.4068
     60 H23        -4.2748   -1.1264    3.3670 H         1 <0>         0.0940
     61 H24        -3.2174   -2.0359    6.0821 H         1 <0>         0.0660
     62 H25        -2.9883   -0.4223    5.3664 H         1 <0>         0.0666
     63 H26        -4.8774   -0.4235    6.9726 H         1 <0>         0.0673
     64 H27        -5.4457   -0.0948    5.3181 H         1 <0>         0.0661
     65 H28        -5.5077   -2.8078    6.7154 H         1 <0>         0.0638
     66 H29        -6.9102   -1.7442    6.4510 H         1 <0>         0.0663
     67 H30        -6.7942   -3.5119    4.7159 H         1 <0>         0.0705
     68 H31        -6.5650   -1.8983    4.0003 H         1 <0>         0.0668
     69 H32        -4.9051   -3.5108    3.1098 H         1 <0>         0.0719
     70 H33        -4.3368   -3.8395    4.7642 H         1 <0>         0.0711
     71 H34         2.2039    0.5547    0.6877 H         1 <0>         0.0728
     72 H35         3.0963   -0.3779    1.9133 H         1 <0>         0.0534
     73 H36         3.2957   -0.7586    0.1860 H         1 <0>         0.1092
     74 H37         4.4978   -2.0949    1.6938 H         1 <0>         0.3783
     75 H38         4.3603   -1.5819   -1.4084 H         1 <0>         0.0783
     76 H39         5.4552   -2.6665   -0.5179 H         1 <0>         0.0976
     77 H40         5.5969   -2.5143   -2.2857 H         1 <0>         0.0544
@<TRIPOS>BOND
     1    1    2 1
     2    1   42 1
     3    1   43 1
     4    1   44 1
     5    2    3 1
     6    2   23 1
     7    2    4 1
     8    4    5 1
     9    4   45 1
    10    4   46 1
    11    5    6 1
    12    5   22 1
    13    5    7 1
    14    7    8 1
    15    7   18 1
    16    7    9 1
    17    9   10 1
    18    9   47 1
    19    9   48 1
    20   10   11 1
    21   10   49 1
    22   10   50 1
    23   11   17 1
    24   11   12 2
    25   12   13 1
    26   12   51 1
    27   13   14 2
    28   13   15 1
    29   15   16 2
    30   15   52 1
    31   16   17 1
    32   16   53 1
    33   17   18 1
    34   17   41 1
    35   18   19 1
    36   18   40 1
    37   19   20 1
    38   19   21 1
    39   19   39 1
    40   21   22 1
    41   21   54 1
    42   21   55 1
    43   22   23 1
    44   22   38 1
    45   23   24 1
    46   23   28 1
    47   24   25 2
    48   24   26 1
    49   26   27 1
    50   26   56 1
    51   26   57 1
    52   27   58 1
    53   28   29 1
    54   29   30 2
    55   29   31 am
    56   31   32 1
    57   31   59 1
    58   32   37 1
    59   32   33 1
    60   32   60 1
    61   33   34 1
    62   33   61 1
    63   33   62 1
    64   34   35 1
    65   34   63 1
    66   34   64 1
    67   35   36 1
    68   35   65 1
    69   35   66 1
    70   36   37 1
    71   36   67 1
    72   36   68 1
    73   37   69 1
    74   37   70 1
    75   38   71 1
    76   38   72 1
    77   38   73 1
    78   39   74 1
    79   41   75 1
    80   41   76 1
    81   41   77 1
@<TRIPOS>MOLECULE
CHEMBL293388
   42    45     0     0     0
SMALL
USER_CHARGES

@<TRIPOS>ATOM
      1 C1         -0.0173    1.4248    0.0099 C.3       1 <0>         0.0220
      2 O1          0.0021   -0.0041    0.0020 O.3       1 <0>        -0.2995
      3 C2         -1.1999   -0.6373    0.0101 C.ar      1 <0>         0.1453
      4 C3         -2.3766    0.0983    0.0195 C.ar      1 <0>        -0.2262
      5 C4         -3.5984   -0.5485    0.0297 C.ar      1 <0>        -0.0750
      6 C5         -3.6629   -1.9302    0.0428 C.ar      1 <0>        -0.1710
      7 C6         -2.4989   -2.6793    0.0401 C.ar      1 <0>         0.1455
      8 C7         -1.2590   -2.0276    0.0032 C.ar      1 <0>        -0.0923
      9 C8         -0.0335   -2.8588   -0.0287 C.ar      1 <0>        -0.1506
     10 C9          1.2228   -2.3154    0.2107 C.ar      1 <0>        -0.0337
     11 C10         2.3353   -3.1323    0.1895 C.ar      1 <0>        -0.2564
     12 C11         2.1965   -4.4914   -0.0681 C.ar      1 <0>         0.2950
     13 C12         0.9400   -5.0339   -0.3152 C.ar      1 <0>        -0.1572
     14 C13        -0.1714   -4.2215   -0.3057 C.ar      1 <0>        -0.0814
     15 C14        -1.5376   -4.7727   -0.6192 C.3       1 <0>         0.2313
     16 O2         -2.5439   -4.0345    0.0849 O.3       1 <0>        -0.3073
     17 C15        -1.6008   -6.2178   -0.1962 C.2       1 <0>        -0.1212
     18 C16        -1.3821   -7.3335   -0.9341 C.2       1 <0>        -0.1507
     19 C17        -1.4966   -8.5708   -0.3285 C.2       1 <0>        -0.1515
     20 C18        -1.8243   -8.6318    0.9854 C.2       1 <0>        -0.1909
     21 S1         -1.9755   -6.9040    1.4088 S.3       1 <0>         0.0761
     22 N1          3.3240   -5.3156   -0.0791 N.2       1 <0>        -1.0934
     23 S2          4.8219   -4.6734    0.2142 S.o2      1 <0>         2.5254
     24 O3          5.0474   -3.7730   -0.8617 O.2       1 <0>        -1.0287
     25 O4          4.7581   -4.2010    1.5529 O.2       1 <0>        -1.0280
     26 C19         5.9622   -6.0797    0.1016 C.3       1 <0>        -0.6374
     27 H1          1.0053    1.8021    0.0021 H         1 <0>         0.0974
     28 H2         -0.5445    1.7859   -0.8732 H         1 <0>         0.0526
     29 H3         -0.5275    1.7763    0.9067 H         1 <0>         0.0527
     30 H4         -2.3378    1.1776    0.0186 H         1 <0>         0.1256
     31 H5         -4.5104    0.0300    0.0279 H         1 <0>         0.1254
     32 H6         -4.6227   -2.4252    0.0554 H         1 <0>         0.1279
     33 H7          1.3283   -1.2595    0.4119 H         1 <0>         0.1297
     34 H8          3.3144   -2.7153    0.3734 H         1 <0>         0.1052
     35 H9          0.8363   -6.0903   -0.5143 H         1 <0>         0.1189
     36 H10        -1.7152   -4.7066   -1.6926 H         1 <0>         0.0963
     37 H11        -1.1226   -7.2570   -1.9796 H         1 <0>         0.1346
     38 H12        -1.3279   -9.4754   -0.8938 H         1 <0>         0.1313
     39 H13        -1.9557   -9.5001    1.6140 H         1 <0>         0.1820
     40 H14         5.8998   -6.5192   -0.8939 H         1 <0>         0.1152
     41 H15         6.9807   -5.7371    0.2843 H         1 <0>         0.1015
     42 H16         5.6913   -6.8277    0.8467 H         1 <0>         0.1153
@<TRIPOS>BOND
     1    1    2 1
     2    1   27 1
     3    1   28 1
     4    1   29 1
     5    2    3 1
     6    3    8 ar
     7    3    4 ar
     8    4    5 ar
     9    4   30 1
    10    5    6 ar
    11    5   31 1
    12    6    7 ar
    13    6   32 1
    14    7   16 1
    15    7    8 ar
    16    8    9 1
    17    9   14 ar
    18    9   10 ar
    19   10   11 ar
    20   10   33 1
    21   11   12 ar
    22   11   34 1
    23   12   13 ar
    24   12   22 1
    25   13   14 ar
    26   13   35 1
    27   14   15 1
    28   15   16 1
    29   15   17 1
    30   15   36 1
    31   17   21 1
    32   17   18 2
    33   18   19 1
    34   18   37 1
    35   19   20 2
    36   19   38 1
    37   20   21 1
    38   20   39 1
    39   22   23 1
    40   23   24 2
    41   23   25 2
    42   23   26 1
    43   26   40 1
    44   26   41 1
    45   26   42 1
@<TRIPOS>MOLECULE
CHEMBL293388__1
   42    45     0     0     0
SMALL
USER_CHARGES

@<TRIPOS>ATOM
      1 C1         -0.0173    1.4248    0.0099 C.3       1 <0>         0.0221
      2 O1          0.0021   -0.0041    0.0020 O.3       1 <0>        -0.2996
      3 C2         -1.1999   -0.6373    0.0101 C.ar      1 <0>         0.1447
      4 C3         -2.3766    0.0983    0.0195 C.ar      1 <0>        -0.2239
      5 C4         -3.5984   -0.5485    0.0307 C.ar      1 <0>        -0.0759
      6 C5         -3.6628   -1.9302    0.0437 C.ar      1 <0>        -0.1654
      7 C6         -2.4989   -2.6793    0.0392 C.ar      1 <0>         0.1372
      8 C7         -1.2590   -2.0276    0.0032 C.ar      1 <0>        -0.0863
      9 C8         -0.0335   -2.8588   -0.0287 C.ar      1 <0>        -0.1468
     10 C9          1.2228   -2.3154    0.2107 C.ar      1 <0>        -0.0342
     11 C10         2.3353   -3.1323    0.1895 C.ar      1 <0>        -0.2548
     12 C11         2.1966   -4.4912   -0.0690 C.ar      1 <0>         0.2949
     13 C12         0.9401   -5.0337   -0.3162 C.ar      1 <0>        -0.1600
     14 C13        -0.1714   -4.2215   -0.3057 C.ar      1 <0>        -0.0777
     15 C14        -1.5376   -4.7727   -0.6192 C.3       1 <0>         0.2295
     16 O2         -2.5439   -4.0345    0.0831 O.3       1 <0>        -0.3007
     17 C15        -1.7832   -4.6813   -2.1032 C.2       1 <0>        -0.1533
     18 C16        -1.6831   -5.6497   -3.0463 C.2       1 <0>        -0.1521
     19 C17        -1.9603   -5.3342   -4.3632 C.2       1 <0>        -0.1532
     20 C18        -2.3240   -4.0657   -4.6726 C.2       1 <0>        -0.1953
     21 S1         -2.2891   -3.2712   -3.0742 S.3       1 <0>         0.0682
     22 N1          3.3242   -5.3152   -0.0809 N.2       1 <0>        -1.0952
     23 S2          4.8221   -4.6731    0.2124 S.o2      1 <0>         2.5260
     24 O3          5.0472   -3.7719   -0.8630 O.2       1 <0>        -1.0283
     25 O4          4.7587   -4.2016    1.5514 O.2       1 <0>        -1.0282
     26 C19         5.9626   -6.0791    0.0985 C.3       1 <0>        -0.6375
     27 H1          1.0053    1.8021    0.0021 H         1 <0>         0.0970
     28 H2         -0.5445    1.7859   -0.8732 H         1 <0>         0.0525
     29 H3         -0.5275    1.7763    0.9067 H         1 <0>         0.0525
     30 H4         -2.3378    1.1776    0.0186 H         1 <0>         0.1251
     31 H5         -4.5104    0.0300    0.0295 H         1 <0>         0.1249
     32 H6         -4.6226   -2.4252    0.0570 H         1 <0>         0.1270
     33 H7          1.3283   -1.2595    0.4119 H         1 <0>         0.1295
     34 H8          3.3144   -2.7153    0.3734 H         1 <0>         0.1051
     35 H9          0.8365   -6.0900   -0.5159 H         1 <0>         0.1166
     36 H10        -1.5833   -5.8179   -0.3132 H         1 <0>         0.1388
     37 H11        -1.3907   -6.6528   -2.7729 H         1 <0>         0.1343
     38 H12        -1.8878   -6.0871   -5.1341 H         1 <0>         0.1297
     39 H13        -2.5741   -3.6456   -5.6356 H         1 <0>         0.1803
     40 H14         5.9000   -6.5180   -0.8973 H         1 <0>         0.1152
     41 H15         6.9811   -5.7366    0.2812 H         1 <0>         0.1016
     42 H16         5.6920   -6.8277    0.8431 H         1 <0>         0.1155
@<TRIPOS>BOND
     1    1    2 1
     2    1   27 1
     3    1   28 1
     4    1   29 1
     5    2    3 1
     6    3    8 ar
     7    3    4 ar
     8    4    5 ar
     9    4   30 1
    10    5    6 ar
    11    5   31 1
    12    6    7 ar
    13    6   32 1
    14    7   16 1
    15    7    8 ar
    16    8    9 1
    17    9   14 ar
    18    9   10 ar
    19   10   11 ar
    20   10   33 1
    21   11   12 ar
    22   11   34 1
    23   12   13 ar
    24   12   22 1
    25   13   14 ar
    26   13   35 1
    27   14   15 1
    28   15   16 1
    29   15   17 1
    30   15   36 1
    31   17   21 1
    32   17   18 2
    33   18   19 1
    34   18   37 1
    35   19   20 2
    36   19   38 1
    37   20   21 1
    38   20   39 1
    39   22   23 1
    40   23   24 2
    41   23   25 2
    42   23   26 1
    43   26   40 1
    44   26   41 1
    45   26   42 1
@<TRIPOS>MOLECULE
CHEMBL134260
   41    43     0     0     0
SMALL
USER_CHARGES

@<TRIPOS>ATOM
      1 C1         -1.9609    0.5762    0.3864 C.3       1 <0>        -0.0970
      2 C2         -0.8390   -0.4052    0.1648 C.2       1 <0>        -0.1371
      3 C3         -0.7198   -1.0700   -1.0241 C.2       1 <0>        -0.0646
      4 C4          0.3286   -1.9646   -1.1844 C.2       1 <0>        -0.1411
      5 S1          1.1601   -1.8549    0.3915 S.3       1 <0>         0.1407
      6 C5          0.0941   -0.6464    1.1597 C.2       1 <0>        -0.0626
      7 C6          0.1830   -0.0566    2.5107 C.ar      1 <0>        -0.0811
      8 C7          0.0562    1.3241    2.6817 C.ar      1 <0>        -0.0410
      9 C8          0.1420    1.8670    3.9438 C.ar      1 <0>        -0.1922
     10 C9          0.3536    1.0450    5.0481 C.ar      1 <0>         0.2395
     11 C10         0.4772   -0.3280    4.8846 C.ar      1 <0>        -0.1473
     12 C11         0.3881   -0.8777    3.6200 C.ar      1 <0>        -0.0478
     13 C12         0.6959   -1.2438    6.0603 C.3       1 <0>        -0.0442
     14 C13         1.2526   -0.4630    7.2506 C.3       1 <0>        -0.1217
     15 C14         0.3610    0.7601    7.5016 C.3       1 <0>         0.1722
     16 N1          0.4414    1.6251    6.3170 N.pl3     1 <0>        -0.7367
     17 C15         0.8585    1.5200    8.7328 C.3       1 <0>        -0.1545
     18 C16        -1.0855    0.3111    7.7181 C.3       1 <0>        -0.1621
     19 C17         1.6872   -2.3412    5.6681 C.3       1 <0>        -0.1474
     20 C18         0.6589   -2.7692   -2.3220 C.1       1 <0>         0.2939
     21 N2          0.9209   -3.4076   -3.2244 N.1       1 <0>        -0.3989
     22 H1         -1.6128    1.5836    0.1583 H         1 <0>         0.0706
     23 H2         -2.7977    0.3247   -0.2653 H         1 <0>         0.0673
     24 H3         -2.2838    0.5302    1.4265 H         1 <0>         0.0716
     25 H4         -1.4277   -0.9023   -1.8223 H         1 <0>         0.1453
     26 H5         -0.1082    1.9633    1.8268 H         1 <0>         0.1274
     27 H6          0.0451    2.9342    4.0782 H         1 <0>         0.1258
     28 H7          0.4821   -1.9456    3.4893 H         1 <0>         0.1266
     29 H8         -0.2529   -1.7006    6.3418 H         1 <0>         0.0815
     30 H9          1.2567   -1.0997    8.1353 H         1 <0>         0.0779
     31 H10         2.2684   -0.1353    7.0295 H         1 <0>         0.0716
     32 H11         0.5534    2.5838    6.4137 H         1 <0>         0.4017
     33 H12         1.8840    1.8496    8.5665 H         1 <0>         0.0632
     34 H13         0.2216    2.3874    8.9063 H         1 <0>         0.0626
     35 H14         0.8242    0.8643    9.6029 H         1 <0>         0.0740
     36 H15        -1.1344   -0.3537    8.5805 H         1 <0>         0.0659
     37 H16        -1.7141    1.1837    7.8959 H         1 <0>         0.0585
     38 H17        -1.4387   -0.2166    6.8321 H         1 <0>         0.0630
     39 H18         2.6348   -1.8879    5.3773 H         1 <0>         0.0579
     40 H19         1.8478   -3.0060    6.5168 H         1 <0>         0.0591
     41 H20         1.2851   -2.9116    4.8308 H         1 <0>         0.0595
@<TRIPOS>BOND
     1    1    2 1
     2    1   22 1
     3    1   23 1
     4    1   24 1
     5    2    6 2
     6    2    3 1
     7    3    4 2
     8    3   25 1
     9    4    5 1
    10    4   20 1
    11    5    6 1
    12    6    7 1
    13    7   12 ar
    14    7    8 ar
    15    8    9 ar
    16    8   26 1
    17    9   10 ar
    18    9   27 1
    19   10   16 1
    20   10   11 ar
    21   11   12 ar
    22   11   13 1
    23   12   28 1
    24   13   14 1
    25   13   19 1
    26   13   29 1
    27   14   15 1
    28   14   30 1
    29   14   31 1
    30   15   16 1
    31   15   17 1
    32   15   18 1
    33   16   32 1
    34   17   33 1
    35   17   34 1
    36   17   35 1
    37   18   36 1
    38   18   37 1
    39   18   38 1
    40   19   39 1
    41   19   40 1
    42   19   41 1
    43   20   21 3
@<TRIPOS>MOLECULE
CHEMBL134260__1
   41    43     0     0     0
SMALL
USER_CHARGES

@<TRIPOS>ATOM
      1 C1         -1.9609    0.5763    0.3864 C.3       1 <0>        -0.0969
      2 C2         -0.8389   -0.4051    0.1648 C.2       1 <0>        -0.1371
      3 C3         -0.7197   -1.0699   -1.0241 C.2       1 <0>        -0.0646
      4 C4          0.3286   -1.9646   -1.1844 C.2       1 <0>        -0.1410
      5 S1          1.1601   -1.8550    0.3916 S.3       1 <0>         0.1403
      6 C5          0.0941   -0.6464    1.1597 C.2       1 <0>        -0.0624
      7 C6          0.1830   -0.0566    2.5107 C.ar      1 <0>        -0.0812
      8 C7          0.0562    1.3241    2.6817 C.ar      1 <0>        -0.0410
      9 C8          0.1383    1.8666    3.9443 C.ar      1 <0>        -0.1922
     10 C9          0.3487    1.0444    5.0487 C.ar      1 <0>         0.2395
     11 C10         0.4787   -0.3278    4.8844 C.ar      1 <0>        -0.1474
     12 C11         0.3881   -0.8777    3.6200 C.ar      1 <0>        -0.0478
     13 C12         0.7172   -1.2415    6.0579 C.3       1 <0>        -0.0444
     14 C13         0.2864   -0.5651    7.3591 C.3       1 <0>        -0.1216
     15 C14         0.9391    0.8212    7.4367 C.3       1 <0>         0.1722
     16 N1          0.4236    1.6232    6.3190 N.pl3     1 <0>        -0.7367
     17 C15         0.5780    1.4903    8.7643 C.3       1 <0>        -0.1544
     18 C16         2.4586    0.6857    7.3200 C.3       1 <0>        -0.1623
     19 C17        -0.0875   -2.5288    5.8674 C.3       1 <0>        -0.1471
     20 C18         0.6589   -2.7693   -2.3219 C.1       1 <0>         0.2939
     21 N2          0.9209   -3.4076   -3.2244 N.1       1 <0>        -0.3989
     22 H1         -1.6127    1.5837    0.1583 H         1 <0>         0.0706
     23 H2         -2.7976    0.3248   -0.2653 H         1 <0>         0.0673
     24 H3         -2.2838    0.5303    1.4264 H         1 <0>         0.0716
     25 H4         -1.4277   -0.9022   -1.8223 H         1 <0>         0.1453
     26 H5         -0.1054    1.9636    1.8265 H         1 <0>         0.1274
     27 H6          0.0396    2.9336    4.0789 H         1 <0>         0.1258
     28 H7          0.4809   -1.9457    3.4894 H         1 <0>         0.1267
     29 H8          1.7780   -1.4860    6.1137 H         1 <0>         0.0814
     30 H9         -0.7984   -0.4594    7.3739 H         1 <0>         0.0717
     31 H10         0.6080   -1.1683    8.2081 H         1 <0>         0.0779
     32 H11         0.1401    2.5400    6.4602 H         1 <0>         0.4017
     33 H12         0.9370    0.8762    9.5902 H         1 <0>         0.0740
     34 H13         1.0442    2.4743    8.8139 H         1 <0>         0.0626
     35 H14        -0.5045    1.5972    8.8348 H         1 <0>         0.0632
     36 H15         2.7098    0.2219    6.3661 H         1 <0>         0.0630
     37 H16         2.9168    1.6731    7.3757 H         1 <0>         0.0585
     38 H17         2.8317    0.0655    8.1350 H         1 <0>         0.0660
     39 H18         0.2299   -3.0232    4.9493 H         1 <0>         0.0595
     40 H19         0.0829   -3.1925    6.7151 H         1 <0>         0.0589
     41 H20        -1.1485   -2.2877    5.8022 H         1 <0>         0.0579
@<TRIPOS>BOND
     1    1    2 1
     2    1   22 1
     3    1   23 1
     4    1   24 1
     5    2    6 2
     6    2    3 1
     7    3    4 2
     8    3   25 1
     9    4    5 1
    10    4   20 1
    11    5    6 1
    12    6    7 1
    13    7   12 ar
    14    7    8 ar
    15    8    9 ar
    16    8   26 1
    17    9   10 ar
    18    9   27 1
    19   10   16 1
    20   10   11 ar
    21   11   12 ar
    22   11   13 1
    23   12   28 1
    24   13   14 1
    25   13   19 1
    26   13   29 1
    27   14   15 1
    28   14   30 1
    29   14   31 1
    30   15   16 1
    31   15   17 1
    32   15   18 1
    33   16   32 1
    34   17   33 1
    35   17   34 1
    36   17   35 1
    37   18   36 1
    38   18   37 1
    39   18   38 1
    40   19   39 1
    41   19   40 1
    42   19   41 1
    43   20   21 3
@<TRIPOS>MOLECULE
CHEMBL271149
   48    51     0     0     0
SMALL
USER_CHARGES

@<TRIPOS>ATOM
      1 C1         -0.8634    1.8431   -0.3600 C.3       1 <0>        -0.1279
      2 C2         -0.3694    0.4103   -0.1510 C.3       1 <0>        -0.0544
      3 C3          0.5758    0.0087   -1.2603 C.ar      1 <0>        -0.1019
      4 C4          0.4201   -0.1083   -2.6205 C.ar      1 <0>        -0.0755
      5 C5          1.4994   -0.5109   -3.4120 C.ar      1 <0>        -0.0164
      6 C6          2.7285   -0.7910   -2.8097 C.ar      1 <0>        -0.0923
      7 C7          2.8746   -0.6712   -1.4451 C.ar      1 <0>         0.0870
      8 C8          1.7955   -0.2681   -0.6534 C.ar      1 <0>         0.1244
      9 N1          1.7014   -0.0779    0.7256 N.am      1 <0>        -0.5393
     10 C9          0.4741    0.3176    1.1026 C.2       1 <0>         0.5349
     11 O1          0.1103    0.5560    2.2349 O.2       1 <0>        -0.4778
     12 C10         2.8138   -0.2857    1.6561 C.3       1 <0>         0.1239
     13 C11         2.4183   -1.3202    2.7299 C.3       1 <0>        -0.1339
     14 C12         3.0852   -0.7963    4.0260 C.3       1 <0>        -0.1196
     15 C13         2.9139    0.7381    3.9023 C.3       1 <0>        -0.1209
     16 C14         3.1289    1.0231    2.4015 C.3       1 <0>        -0.1304
     17 F1          4.0660   -0.9441   -0.8697 F         1 <0>        -0.1306
     18 C15         1.3415   -0.6400   -4.8748 C.2       1 <0>         0.0931
     19 C16         2.3611   -0.6161   -5.8016 C.2       1 <0>        -0.1728
     20 C17         1.7890   -0.7686   -7.0640 C.2       1 <0>        -0.1071
     21 C18         0.4241   -0.8838   -6.8893 C.2       1 <0>         0.0600
     22 N2          0.1601   -0.8094   -5.5402 N.pl3     1 <0>        -0.4142
     23 C19        -1.1654   -0.8942   -4.9219 C.3       1 <0>         0.0541
     24 C20        -0.5458   -1.0557   -7.9287 C.1       1 <0>         0.2757
     25 N3         -1.3153   -1.1921   -8.7532 N.1       1 <0>        -0.4013
     26 C21        -1.5522   -0.5573   -0.0740 C.3       1 <0>        -0.1277
     27 H1         -0.0084    2.5152   -0.4329 H         1 <0>         0.0627
     28 H2         -1.4465    1.8959   -1.2794 H         1 <0>         0.0743
     29 H3         -1.4873    2.1390    0.4834 H         1 <0>         0.0751
     30 H4         -0.5341    0.1101   -3.0769 H         1 <0>         0.1393
     31 H5          3.5665   -1.1026   -3.4156 H         1 <0>         0.1545
     32 H6          3.6950   -0.6278    1.1135 H         1 <0>         0.1097
     33 H7          1.3350   -1.3550    2.8455 H         1 <0>         0.0785
     34 H8          2.8072   -2.3053    2.4721 H         1 <0>         0.0719
     35 H9          2.5659   -1.1732    4.9071 H         1 <0>         0.0722
     36 H10         4.1409   -1.0662    4.0535 H         1 <0>         0.0703
     37 H11         1.9106    1.0358    4.2072 H         1 <0>         0.0742
     38 H12         3.6645    1.2552    4.5001 H         1 <0>         0.0681
     39 H13         4.1633    1.3156    2.2215 H         1 <0>         0.0751
     40 H14         2.4542    1.8128    2.0710 H         1 <0>         0.0689
     41 H15         3.4135   -0.5001   -5.5886 H         1 <0>         0.1544
     42 H16         2.3168   -0.7919   -8.0059 H         1 <0>         0.1555
     43 H17        -1.5520    0.1107   -4.7520 H         1 <0>         0.0868
     44 H18        -1.8409   -1.4364   -5.5836 H         1 <0>         0.0896
     45 H19        -1.0894   -1.4200   -3.9701 H         1 <0>         0.0982
     46 H20        -2.1138   -0.5195   -1.0074 H         1 <0>         0.0737
     47 H21        -1.1831   -1.5701    0.0873 H         1 <0>         0.0623
     48 H22        -2.2022   -0.2714    0.7529 H         1 <0>         0.0756
@<TRIPOS>BOND
     1    1    2 1
     2    1   27 1
     3    1   28 1
     4    1   29 1
     5    2   10 1
     6    2    3 1
     7    2   26 1
     8    3    8 ar
     9    3    4 ar
    10    4    5 ar
    11    4   30 1
    12    5    6 ar
    13    5   18 1
    14    6    7 ar
    15    6   31 1
    16    7    8 ar
    17    7   17 1
    18    8    9 1
    19    9   10 am
    20    9   12 1
    21   10   11 2
    22   12   16 1
    23   12   13 1
    24   12   32 1
    25   13   14 1
    26   13   33 1
    27   13   34 1
    28   14   15 1
    29   14   35 1
    30   14   36 1
    31   15   16 1
    32   15   37 1
    33   15   38 1
    34   16   39 1
    35   16   40 1
    36   18   22 1
    37   18   19 2
    38   19   20 1
    39   19   41 1
    40   20   21 2
    41   20   42 1
    42   21   22 1
    43   21   24 1
    44   22   23 1
    45   23   43 1
    46   23   44 1
    47   23   45 1
    48   24   25 3
    49   26   46 1
    50   26   47 1
    51   26   48 1
@<TRIPOS>MOLECULE
CHEMBL514630
   45    49     0     0     0
SMALL
USER_CHARGES

@<TRIPOS>ATOM
      1 C1         -0.0187    1.5258    0.0104 C.3       1 <0>        -0.1350
      2 C2          0.0021   -0.0041    0.0020 C.3       1 <0>         0.0237
      3 C3         -1.4106   -0.6295    0.0211 C.3       1 <0>        -0.1018
      4 C4         -1.3418   -2.1550    0.0237 C.3       1 <0>        -0.0584
      5 C5          0.1217   -2.6505    0.0065 C.3       1 <0>         0.0211
      6 C6          0.7838   -1.9905    1.2057 C.ar      1 <0>        -0.0757
      7 C7          0.7210   -0.5976    1.2033 C.ar      1 <0>        -0.0835
      8 C8          1.2589    0.1270    2.2276 C.ar      1 <0>        -0.1104
      9 C9          1.8903   -0.5473    3.2652 C.ar      1 <0>        -0.1199
     10 C10         1.9708   -1.9272    3.2572 C.ar      1 <0>        -0.1199
     11 C11         1.4004   -2.6595    2.2236 C.ar      1 <0>        -0.0767
     12 C12         0.7549   -1.9957   -1.2108 C.ar      1 <0>        -0.0795
     13 C13         0.7079   -0.5844   -1.2132 C.ar      1 <0>        -0.0729
     14 C14         1.2349    0.1517   -2.2351 C.ar      1 <0>        -0.1043
     15 C15         1.8550   -0.5109   -3.2869 C.ar      1 <0>        -0.1180
     16 C16         1.9348   -1.8908   -3.2955 C.ar      1 <0>        -0.1208
     17 C17         1.3476   -2.6693   -2.2399 C.ar      1 <0>        -0.1036
     18 C18        -2.0669   -2.6914   -1.2122 C.3       1 <0>        -0.1468
     19 C19        -2.0253   -2.6778    1.2608 C.2       1 <0>         0.5165
     20 O1         -1.4037   -3.3440    2.0614 O.2       1 <0>        -0.4452
     21 N1         -3.3272   -2.4052    1.4776 N.am      1 <0>        -0.6157
     22 C20        -3.9580   -2.8877    2.6193 C.2       1 <0>         0.2439
     23 N2         -3.4603   -3.6152    3.5997 N.2       1 <0>        -0.3047
     24 N3         -4.1642   -3.9822    4.5827 N.2       1 <0>        -0.2315
     25 C21        -5.4329   -3.6281    4.6306 C.2       1 <0>         0.0066
     26 S1         -5.5571   -2.6888    3.1150 S.3       1 <0>         0.0700
     27 H1          1.0039    1.9031    0.0027 H         1 <0>         0.0681
     28 H2         -0.5459    1.8868   -0.8726 H         1 <0>         0.0671
     29 H3         -0.5289    1.8773    0.9072 H         1 <0>         0.0652
     30 H4         -1.9372   -0.2945    0.9148 H         1 <0>         0.0730
     31 H5         -1.9595   -0.2984   -0.8605 H         1 <0>         0.0874
     32 H6          0.2053   -3.7373    0.0161 H         1 <0>         0.1105
     33 H7          1.1952    1.2051    2.2311 H         1 <0>         0.1236
     34 H8          2.3214    0.0103    4.0835 H         1 <0>         0.1203
     35 H9          2.4646   -2.4404    4.0691 H         1 <0>         0.1210
     36 H10         1.4470   -3.7385    2.2234 H         1 <0>         0.1242
     37 H11         1.1705    1.2298   -2.2262 H         1 <0>         0.1270
     38 H12         2.2773    0.0559   -4.1035 H         1 <0>         0.1234
     39 H13         2.4185   -2.3950   -4.1190 H         1 <0>         0.1229
     40 H14         1.3949   -3.7483   -2.2356 H         1 <0>         0.1297
     41 H15        -1.5874   -2.3044   -2.1113 H         1 <0>         0.0815
     42 H16        -2.0212   -3.7804   -1.2161 H         1 <0>         0.0683
     43 H17        -3.1087   -2.3715   -1.1895 H         1 <0>         0.0629
     44 H18        -3.8243   -1.8725    0.8373 H         1 <0>         0.4266
     45 H19        -6.1839   -3.8414    5.3769 H         1 <0>         0.2400
@<TRIPOS>BOND
     1    1    2 1
     2    1   27 1
     3    1   28 1
     4    1   29 1
     5    2    7 1
     6    2   13 1
     7    2    3 1
     8    3    4 1
     9    3   30 1
    10    3   31 1
    11    4    5 1
    12    4   18 1
    13    4   19 1
    14    5    6 1
    15    5   12 1
    16    5   32 1
    17    6   11 ar
    18    6    7 ar
    19    7    8 ar
    20    8    9 ar
    21    8   33 1
    22    9   10 ar
    23    9   34 1
    24   10   11 ar
    25   10   35 1
    26   11   36 1
    27   12   17 ar
    28   12   13 ar
    29   13   14 ar
    30   14   15 ar
    31   14   37 1
    32   15   16 ar
    33   15   38 1
    34   16   17 ar
    35   16   39 1
    36   17   40 1
    37   18   41 1
    38   18   42 1
    39   18   43 1
    40   19   20 2
    41   19   21 am
    42   21   22 1
    43   21   44 1
    44   22   26 1
    45   22   23 2
    46   23   24 1
    47   24   25 2
    48   25   26 1
    49   25   45 1
@<TRIPOS>MOLECULE
CHEMBL514630__1
   45    49     0     0     0
SMALL
USER_CHARGES

@<TRIPOS>ATOM
      1 C1         -0.0187    1.5258    0.0104 C.3       1 <0>        -0.1350
      2 C2          0.0021   -0.0041    0.0020 C.3       1 <0>         0.0237
      3 C3         -1.4106   -0.6295    0.0211 C.3       1 <0>        -0.1018
      4 C4         -1.3418   -2.1550    0.0237 C.3       1 <0>        -0.0584
      5 C5          0.1217   -2.6505    0.0065 C.3       1 <0>         0.0216
      6 C6          0.7838   -1.9905    1.2057 C.ar      1 <0>        -0.0793
      7 C7          0.7210   -0.5976    1.2033 C.ar      1 <0>        -0.0722
      8 C8          1.2589    0.1270    2.2276 C.ar      1 <0>        -0.1055
      9 C9          1.8903   -0.5473    3.2652 C.ar      1 <0>        -0.1179
     10 C10         1.9708   -1.9272    3.2572 C.ar      1 <0>        -0.1196
     11 C11         1.4004   -2.6595    2.2236 C.ar      1 <0>        -0.1023
     12 C12         0.7549   -1.9957   -1.2108 C.ar      1 <0>        -0.0780
     13 C13         0.7079   -0.5844   -1.2132 C.ar      1 <0>        -0.0832
     14 C14         1.2349    0.1517   -2.2351 C.ar      1 <0>        -0.1092
     15 C15         1.8550   -0.5109   -3.2869 C.ar      1 <0>        -0.1204
     16 C16         1.9348   -1.8908   -3.2955 C.ar      1 <0>        -0.1212
     17 C17         1.3476   -2.6693   -2.2399 C.ar      1 <0>        -0.0765
     18 C18        -2.0357   -2.6858    1.2797 C.3       1 <0>        -0.1469
     19 C19        -2.0560   -2.6833   -1.1936 C.2       1 <0>         0.5167
     20 O1         -1.4547   -3.3531   -2.0065 O.2       1 <0>        -0.4451
     21 N1         -3.3630   -2.4116   -1.3789 N.am      1 <0>        -0.6157
     22 C20        -4.0222   -2.8991   -2.5022 C.2       1 <0>         0.2438
     23 N2         -3.5519   -3.6408   -3.4857 N.2       1 <0>        -0.3047
     24 N3         -4.2798   -4.0106   -4.4500 N.2       1 <0>        -0.2315
     25 C21        -5.5459   -3.6451   -4.4747 C.2       1 <0>         0.0065
     26 S1         -5.6332   -2.7024   -2.9586 S.3       1 <0>         0.0700
     27 H1          1.0039    1.9031    0.0027 H         1 <0>         0.0681
     28 H2         -0.5459    1.8868   -0.8726 H         1 <0>         0.0655
     29 H3         -0.5289    1.8773    0.9072 H         1 <0>         0.0669
     30 H4         -1.9372   -0.2945    0.9148 H         1 <0>         0.0876
     31 H5         -1.9595   -0.2984   -0.8605 H         1 <0>         0.0728
     32 H6          0.2053   -3.7373    0.0161 H         1 <0>         0.1102
     33 H7          1.1952    1.2051    2.2311 H         1 <0>         0.1264
     34 H8          2.3214    0.0103    4.0835 H         1 <0>         0.1225
     35 H9          2.4646   -2.4404    4.0691 H         1 <0>         0.1228
     36 H10         1.4470   -3.7385    2.2234 H         1 <0>         0.1256
     37 H11         1.1705    1.2298   -2.2262 H         1 <0>         0.1243
     38 H12         2.2773    0.0559   -4.1035 H         1 <0>         0.1212
     39 H13         2.4185   -2.3950   -4.1190 H         1 <0>         0.1211
     40 H14         1.3949   -3.7483   -2.2356 H         1 <0>         0.1282
     41 H15        -3.0777   -2.3660    1.2818 H         1 <0>         0.0629
     42 H16        -1.9899   -3.7748    1.2874 H         1 <0>         0.0683
     43 H17        -1.5339   -2.2948    2.1648 H         1 <0>         0.0812
     44 H18        -3.8440   -1.8760   -0.7287 H         1 <0>         0.4266
     45 H19        -6.3145   -3.8585   -5.2029 H         1 <0>         0.2400
@<TRIPOS>BOND
     1    1    2 1
     2    1   27 1
     3    1   28 1
     4    1   29 1
     5    2    7 1
     6    2   13 1
     7    2    3 1
     8    3    4 1
     9    3   30 1
    10    3   31 1
    11    4    5 1
    12    4   18 1
    13    4   19 1
    14    5    6 1
    15    5   12 1
    16    5   32 1
    17    6   11 ar
    18    6    7 ar
    19    7    8 ar
    20    8    9 ar
    21    8   33 1
    22    9   10 ar
    23    9   34 1
    24   10   11 ar
    25   10   35 1
    26   11   36 1
    27   12   17 ar
    28   12   13 ar
    29   13   14 ar
    30   14   15 ar
    31   14   37 1
    32   15   16 ar
    33   15   38 1
    34   16   17 ar
    35   16   39 1
    36   17   40 1
    37   18   41 1
    38   18   42 1
    39   18   43 1
    40   19   20 2
    41   19   21 am
    42   21   22 1
    43   21   44 1
    44   22   26 1
    45   22   23 2
    46   23   24 1
    47   24   25 2
    48   25   26 1
    49   25   45 1
@<TRIPOS>MOLECULE
CHEMBL138283
   53    57     0     0     0
SMALL
USER_CHARGES

@<TRIPOS>ATOM
      1 C1         -0.0183    1.5003    0.0103 C.3       1 <0>        -0.1224
      2 C2          0.0021   -0.0041    0.0020 C.2       1 <0>        -0.0631
      3 C3         -0.1123   -0.5487   -1.2139 C.2       1 <0>        -0.1753
      4 C4         -0.0829   -2.0354   -1.4169 C.3       1 <0>         0.2114
      5 N1          0.7292   -2.6347   -0.3546 N.pl3     1 <0>        -0.7385
      6 C5          0.5525   -2.1866    0.9567 C.ar      1 <0>         0.2184
      7 C6          0.1298   -0.8543    1.1943 C.ar      1 <0>        -0.0812
      8 C7         -0.1841   -0.4972    2.5007 C.ar      1 <0>        -0.0537
      9 C8          0.0763   -1.4074    3.5384 C.ar      1 <0>        -0.0855
     10 C9          0.6352   -2.6568    3.2921 C.ar      1 <0>        -0.0583
     11 C10         0.8715   -3.0416    1.9930 C.ar      1 <0>        -0.1782
     12 C11        -0.2650   -1.0397    4.9343 C.ar      1 <0>        -0.1086
     13 C12        -0.3097   -1.9935    5.9451 C.ar      1 <0>        -0.0813
     14 C13        -0.6382   -1.6088    7.2309 C.ar      1 <0>        -0.1462
     15 C14        -0.9254   -0.2850    7.5141 C.ar      1 <0>        -0.0880
     16 C15        -0.8834    0.6678    6.5129 C.ar      1 <0>        -0.1444
     17 C16        -0.5520    0.2977    5.2233 C.ar      1 <0>         0.1301
     18 O1         -0.4721    1.2017    4.2230 O.3       1 <0>        -0.3040
     19 C17        -0.8122    0.8103    2.8927 C.3       1 <0>         0.1482
     20 C18        -2.3377    0.6846    2.7956 C.3       1 <0>        -0.1042
     21 C19        -2.9704    2.0250    3.0679 C.ar      1 <0>        -0.0782
     22 C20        -3.3082    2.3801    4.3605 C.ar      1 <0>        -0.1021
     23 C21        -3.8886    3.6095    4.6102 C.ar      1 <0>        -0.1180
     24 C22        -4.1309    4.4841    3.5675 C.ar      1 <0>        -0.1216
     25 C23        -3.7923    4.1294    2.2750 C.ar      1 <0>        -0.1188
     26 C24        -3.2079    2.9016    2.0258 C.ar      1 <0>        -0.1177
     27 C25         0.5395   -2.3549   -2.7776 C.3       1 <0>        -0.1525
     28 C26        -1.5042   -2.5966   -1.3599 C.3       1 <0>        -0.1574
     29 H1          0.6471    1.8684    0.7912 H         1 <0>         0.0676
     30 H2          0.3160    1.8735   -0.9577 H         1 <0>         0.0727
     31 H3         -1.0329    1.8488    0.2034 H         1 <0>         0.0716
     32 H4         -0.2273    0.1075   -2.0625 H         1 <0>         0.1242
     33 H5          1.3725   -3.3331   -0.5557 H         1 <0>         0.4029
     34 H6          0.8798   -3.3166    4.1108 H         1 <0>         0.1307
     35 H7          1.3082   -4.0072    1.7814 H         1 <0>         0.1279
     36 H8         -0.0976   -3.0288    5.7288 H         1 <0>         0.1266
     37 H9         -0.6713   -2.3451    8.0200 H         1 <0>         0.1252
     38 H10        -1.1828    0.0056    8.5223 H         1 <0>         0.1293
     39 H11        -1.1117    1.6996    6.7390 H         1 <0>         0.1312
     40 H12        -0.4825    1.6312    2.2701 H         1 <0>         0.1256
     41 H13        -2.6117    0.3500    1.7951 H         1 <0>         0.0885
     42 H14        -2.6901   -0.0395    3.5302 H         1 <0>         0.0793
     43 H15        -3.1189    1.6968    5.1751 H         1 <0>         0.1191
     44 H16        -4.1532    3.8866    5.6200 H         1 <0>         0.1213
     45 H17        -4.5850    5.4444    3.7625 H         1 <0>         0.1207
     46 H18        -3.9819    4.8125    1.4603 H         1 <0>         0.1214
     47 H19        -2.9400    2.6260    1.0165 H         1 <0>         0.1195
     48 H20         1.5565   -1.9642   -2.8126 H         1 <0>         0.0635
     49 H21         0.5600   -3.4349   -2.9232 H         1 <0>         0.0637
     50 H22        -0.0545   -1.8931   -3.5663 H         1 <0>         0.0747
     51 H23        -2.1074   -2.1386   -2.1438 H         1 <0>         0.0665
     52 H24        -1.4748   -3.6761   -1.5081 H         1 <0>         0.0603
     53 H25        -1.9435   -2.3752   -0.3873 H         1 <0>         0.0570
@<TRIPOS>BOND
     1    1    2 1
     2    1   29 1
     3    1   30 1
     4    1   31 1
     5    2    7 1
     6    2    3 2
     7    3    4 1
     8    3   32 1
     9    4    5 1
    10    4   27 1
    11    4   28 1
    12    5    6 1
    13    5   33 1
    14    6   11 ar
    15    6    7 ar
    16    7    8 ar
    17    8   19 1
    18    8    9 ar
    19    9   10 ar
    20    9   12 1
    21   10   11 ar
    22   10   34 1
    23   11   35 1
    24   12   17 ar
    25   12   13 ar
    26   13   14 ar
    27   13   36 1
    28   14   15 ar
    29   14   37 1
    30   15   16 ar
    31   15   38 1
    32   16   17 ar
    33   16   39 1
    34   17   18 1
    35   18   19 1
    36   19   20 1
    37   19   40 1
    38   20   21 1
    39   20   41 1
    40   20   42 1
    41   21   26 ar
    42   21   22 ar
    43   22   23 ar
    44   22   43 1
    45   23   24 ar
    46   23   44 1
    47   24   25 ar
    48   24   45 1
    49   25   26 ar
    50   25   46 1
    51   26   47 1
    52   27   48 1
    53   27   49 1
    54   27   50 1
    55   28   51 1
    56   28   52 1
    57   28   53 1
@<TRIPOS>MOLECULE
CHEMBL138283__1
   53    57     0     0     0
SMALL
USER_CHARGES

@<TRIPOS>ATOM
      1 C1         -0.2222    1.7192    0.0149 C.3       1 <0>        -0.1270
      2 C2         -0.1661    0.2194   -0.1017 C.2       1 <0>        -0.0626
      3 C3         -0.3352   -0.2721   -1.3311 C.2       1 <0>        -0.1748
      4 C4         -0.2807   -1.7489   -1.5993 C.3       1 <0>         0.2116
      5 N1          0.6063   -2.3803   -0.6171 N.pl3     1 <0>        -0.7363
      6 C5          0.5173   -1.9906    0.7201 C.ar      1 <0>         0.2223
      7 C6          0.0623   -0.6871    1.0340 C.ar      1 <0>        -0.0869
      8 C7         -0.1863   -0.3879    2.3663 C.ar      1 <0>        -0.0564
      9 C8          0.1931   -1.3044    3.3603 C.ar      1 <0>        -0.0878
     10 C9          0.8036   -2.5090    3.0335 C.ar      1 <0>        -0.0550
     11 C10         0.9581   -2.8514    1.7076 C.ar      1 <0>        -0.1807
     12 C11        -0.1135   -0.9897    4.7767 C.ar      1 <0>        -0.0995
     13 C12         0.5038   -1.6562    5.8262 C.ar      1 <0>        -0.0836
     14 C13         0.1854   -1.3220    7.1295 C.ar      1 <0>        -0.1421
     15 C14        -0.7391   -0.3259    7.3895 C.ar      1 <0>        -0.0913
     16 C15        -1.3572    0.3453    6.3495 C.ar      1 <0>        -0.1417
     17 C16        -1.0516    0.0152    5.0433 C.ar      1 <0>         0.1216
     18 O1         -1.6494    0.6313    3.9927 O.3       1 <0>        -0.3023
     19 C17        -0.8298    0.8872    2.8416 C.3       1 <0>         0.1474
     20 C18         0.2530    1.8908    3.2475 C.3       1 <0>        -0.1085
     21 C19        -0.3884    3.2111    3.5889 C.ar      1 <0>        -0.0790
     22 C20        -0.5813    4.1611    2.6034 C.ar      1 <0>        -0.1191
     23 C21        -1.1696    5.3721    2.9166 C.ar      1 <0>        -0.1189
     24 C22        -1.5654    5.6330    4.2151 C.ar      1 <0>        -0.1214
     25 C23        -1.3733    4.6826    5.2004 C.ar      1 <0>        -0.1180
     26 C24        -0.7889    3.4699    4.8864 C.ar      1 <0>        -0.1046
     27 C25        -1.6828   -2.3481   -1.4875 C.3       1 <0>        -0.1580
     28 C26         0.2659   -1.9923   -3.0077 C.3       1 <0>        -0.1527
     29 H1          0.4869    2.0514    0.7732 H         1 <0>         0.0709
     30 H2          0.0350    2.1681   -0.9445 H         1 <0>         0.0720
     31 H3         -1.2289    2.0241    0.3005 H         1 <0>         0.0729
     32 H4         -0.5158    0.4143   -2.1445 H         1 <0>         0.1246
     33 H5          1.2452   -3.0580   -0.8927 H         1 <0>         0.4027
     34 H6          1.1526   -3.1708    3.8114 H         1 <0>         0.1298
     35 H7          1.4210   -3.7904    1.4380 H         1 <0>         0.1280
     36 H8          1.2312   -2.4295    5.6295 H         1 <0>         0.1266
     37 H9          0.6608   -1.8417    7.9487 H         1 <0>         0.1259
     38 H10        -0.9808   -0.0705    8.4103 H         1 <0>         0.1290
     39 H11        -2.0753    1.1237    6.5601 H         1 <0>         0.1317
     40 H12        -1.4783    1.3052    2.0817 H         1 <0>         0.1250
     41 H13         0.7913    1.5128    4.1166 H         1 <0>         0.0827
     42 H14         0.9494    2.0283    2.4203 H         1 <0>         0.0913
     43 H15        -0.2721    3.9573    1.5889 H         1 <0>         0.1210
     44 H16        -1.3197    6.1146    2.1468 H         1 <0>         0.1215
     45 H17        -2.0244    6.5795    4.4599 H         1 <0>         0.1207
     46 H18        -1.6822    4.8866    6.2150 H         1 <0>         0.1213
     47 H19        -0.6422    2.7259    5.6554 H         1 <0>         0.1208
     48 H20        -2.3398   -1.8737   -2.2164 H         1 <0>         0.0668
     49 H21        -1.6367   -3.4195   -1.6831 H         1 <0>         0.0604
     50 H22        -2.0714   -2.1785   -0.4834 H         1 <0>         0.0575
     51 H23         1.2685   -1.5718   -3.0860 H         1 <0>         0.0634
     52 H24         0.3053   -3.0641   -3.2020 H         1 <0>         0.0638
     53 H25        -0.3867   -1.5144   -3.7383 H         1 <0>         0.0749
@<TRIPOS>BOND
     1    1    2 1
     2    1   29 1
     3    1   30 1
     4    1   31 1
     5    2    7 1
     6    2    3 2
     7    3    4 1
     8    3   32 1
     9    4    5 1
    10    4   27 1
    11    4   28 1
    12    5    6 1
    13    5   33 1
    14    6   11 ar
    15    6    7 ar
    16    7    8 ar
    17    8   19 1
    18    8    9 ar
    19    9   10 ar
    20    9   12 1
    21   10   11 ar
    22   10   34 1
    23   11   35 1
    24   12   17 ar
    25   12   13 ar
    26   13   14 ar
    27   13   36 1
    28   14   15 ar
    29   14   37 1
    30   15   16 ar
    31   15   38 1
    32   16   17 ar
    33   16   39 1
    34   17   18 1
    35   18   19 1
    36   19   20 1
    37   19   40 1
    38   20   21 1
    39   20   41 1
    40   20   42 1
    41   21   26 ar
    42   21   22 ar
    43   22   23 ar
    44   22   43 1
    45   23   24 ar
    46   23   44 1
    47   24   25 ar
    48   24   45 1
    49   25   26 ar
    50   25   46 1
    51   26   47 1
    52   27   48 1
    53   27   49 1
    54   27   50 1
    55   28   51 1
    56   28   52 1
    57   28   53 1
@<TRIPOS>MOLECULE
CHEMBL132363
   53    57     0     0     0
SMALL
USER_CHARGES

@<TRIPOS>ATOM
      1 C1         -0.0184    1.5028    0.0103 C.3       1 <0>        -0.1149
      2 C2          0.0021   -0.0041    0.0020 C.ar      1 <0>        -0.1232
      3 C3          0.0059   -0.6985   -1.1924 C.ar      1 <0>        -0.0791
      4 C4          0.0249   -2.0874   -1.1538 C.ar      1 <0>        -0.1698
      5 C5          0.0394   -2.7339    0.0678 C.ar      1 <0>         0.0940
      6 N1          0.0349   -2.0523    1.1954 N.ar      1 <0>        -0.4508
      7 C6          0.0232   -0.7206    1.2043 C.ar      1 <0>         0.1577
      8 C7          0.0261    0.0004    2.4833 C.2       1 <0>        -0.1226
      9 C8          0.0464   -0.6857    3.6442 C.2       1 <0>         0.1525
     10 C9          0.1116   -0.1359    4.9230 C.ar      1 <0>        -0.0392
     11 C10        -0.7918   -0.7163    5.8463 C.ar      1 <0>        -0.0889
     12 C11        -1.1879   -0.0207    6.9669 C.ar      1 <0>        -0.0551
     13 C12        -0.6820    1.2043    7.2870 C.ar      1 <0>        -0.1660
     14 C13         0.4271    1.6820    6.5661 C.ar      1 <0>         0.2250
     15 C14         0.9014    0.9718    5.4092 C.ar      1 <0>        -0.0947
     16 C15         2.1760    1.3775    4.8256 C.2       1 <0>        -0.0606
     17 C16         2.7694    2.4901    5.2246 C.2       1 <0>        -0.1737
     18 C17         2.2494    3.3517    6.2676 C.3       1 <0>         0.2283
     19 N2          1.0390    2.8868    6.8122 N.pl3     1 <0>        -0.7079
     20 C18         2.1123    4.7923    5.7487 C.3       1 <0>        -0.1576
     21 C19         3.3298    3.4727    7.4209 C.3       1 <0>        -0.1728
     22 C20         2.8605    0.5015    3.7097 C.3       1 <0>        -0.1082
     23 C21        -1.3174   -2.1111    5.5098 C.ar      1 <0>        -0.1162
     24 C22        -2.2441   -2.6719    6.3541 C.ar      1 <0>        -0.1047
     25 C23        -2.6533   -3.9974    6.0439 C.ar      1 <0>         0.0626
     26 C24        -2.1313   -4.6455    4.8754 C.ar      1 <0>        -0.1161
     27 C25        -1.2273   -4.0125    4.0814 C.ar      1 <0>        -0.1195
     28 C26        -0.7467   -2.7356    4.3425 C.ar      1 <0>         0.1461
     29 O1          0.0642   -2.0597    3.6042 O.3       1 <0>        -0.1978
     30 F1         -3.5497   -4.5864    6.7851 F         1 <0>        -0.1231
     31 H1          1.0042    1.8801    0.0026 H         1 <0>         0.0754
     32 H2         -0.5455    1.8639   -0.8728 H         1 <0>         0.0709
     33 H3         -0.5286    1.8543    0.9071 H         1 <0>         0.0711
     34 H4         -0.0059   -0.1731   -2.1359 H         1 <0>         0.1341
     35 H5          0.0281   -2.6573   -2.0712 H         1 <0>         0.1338
     36 H6          0.0542   -3.8133    0.0986 H         1 <0>         0.1552
     37 H7          0.0119    1.0803    2.4944 H         1 <0>         0.1558
     38 H8         -1.9821   -0.4119    7.5808 H         1 <0>         0.1266
     39 H9         -1.0235    1.7782    8.1314 H         1 <0>         0.1353
     40 H10         3.7732    2.7151    4.6868 H         1 <0>         0.1357
     41 H11         0.6038    3.4742    7.5606 H         1 <0>         0.4053
     42 H12         1.4294    4.8091    4.8993 H         1 <0>         0.0581
     43 H13         1.7207    5.4287    6.5423 H         1 <0>         0.0609
     44 H14         3.0895    5.1606    5.4365 H         1 <0>         0.0715
     45 H15         4.2479    3.8982    7.0156 H         1 <0>         0.0672
     46 H16         2.9474    4.1194    8.2107 H         1 <0>         0.0591
     47 H17         3.5373    2.4838    7.8297 H         1 <0>         0.0536
     48 H18         2.5180    0.8303    2.7286 H         1 <0>         0.0703
     49 H19         3.9429    0.6133    3.7730 H         1 <0>         0.0659
     50 H20         2.5943   -0.5454    3.8554 H         1 <0>         0.0664
     51 H21        -2.6072   -2.1917    7.1992 H         1 <0>         0.1405
     52 H22        -2.4624   -5.6485    4.5879 H         1 <0>         0.1471
     53 H23        -0.7949   -4.4684    3.2047 H         1 <0>         0.1363
@<TRIPOS>BOND
     1    1    2 1
     2    1   31 1
     3    1   32 1
     4    1   33 1
     5    2    7 ar
     6    2    3 ar
     7    3    4 ar
     8    3   34 1
     9    4    5 ar
    10    4   35 1
    11    5    6 ar
    12    5   36 1
    13    6    7 ar
    14    7    8 1
    15    8    9 2
    16    8   37 1
    17    9   29 1
    18    9   10 1
    19   10   15 ar
    20   10   11 ar
    21   11   12 ar
    22   11   23 1
    23   12   13 ar
    24   12   38 1
    25   13   14 ar
    26   13   39 1
    27   14   19 1
    28   14   15 ar
    29   15   16 1
    30   16   17 2
    31   16   22 1
    32   17   18 1
    33   17   40 1
    34   18   19 1
    35   18   20 1
    36   18   21 1
    37   19   41 1
    38   20   42 1
    39   20   43 1
    40   20   44 1
    41   21   45 1
    42   21   46 1
    43   21   47 1
    44   22   48 1
    45   22   49 1
    46   22   50 1
    47   23   28 ar
    48   23   24 ar
    49   24   25 ar
    50   24   51 1
    51   25   26 ar
    52   25   30 1
    53   26   27 ar
    54   26   52 1
    55   27   28 ar
    56   27   53 1
    57   28   29 1
@<TRIPOS>MOLECULE
CHEMBL428011
   69    74     0     0     0
SMALL
USER_CHARGES

@<TRIPOS>ATOM
      1 C1          0.1008    1.6034    0.3034 C.3       1 <0>        -0.1530
      2 C2          0.1639    0.0751    0.2699 C.3       1 <0>        -0.0352
      3 C3         -1.2416   -0.5005    0.2663 C.3       1 <0>        -0.0966
      4 C4         -2.0016    0.1502    1.4331 C.3       1 <0>        -0.0107
      5 H1         -2.9637   -0.3471    1.5560 H         1 <0>         0.0994
      6 C5         -1.2142    0.0350    2.7196 C.2       1 <0>        -0.0887
      7 C6         -1.8695   -0.2814    3.8358 C.2       1 <0>        -0.1187
      8 C7         -3.3605   -0.5109    3.8351 C.3       1 <0>        -0.0773
      9 C8         -3.6751   -1.7092    4.7357 C.3       1 <0>        -0.1661
     10 C9         -3.0007   -1.5449    6.0708 C.2       1 <0>         0.3863
     11 O1         -3.5678   -1.9252    7.0754 O.2       1 <0>        -0.4638
     12 C10        -1.7261   -0.9598    6.1779 C.2       1 <0>        -0.2241
     13 C11        -1.1460   -0.3818    5.1056 C.2       1 <0>        -0.0239
     14 C12         0.2524    0.1842    5.1559 C.3       1 <0>         0.0932
     15 O2          0.8997   -0.1559    3.9292 O.3       1 <0>        -0.3648
     16 C13         0.2756    0.2838    2.7338 C.3       1 <0>         0.1352
     17 H2          0.4589    1.3509    2.6088 H         1 <0>         0.0867
     18 C14         0.8748   -0.4532    1.5439 C.3       1 <0>        -0.0772
     19 H3          0.7440   -1.5308    1.6428 H         1 <0>         0.0890
     20 C15         2.3399   -0.0964    1.2566 C.3       1 <0>        -0.1085
     21 C16         2.4985   -0.4472   -0.2466 C.3       1 <0>        -0.1458
     22 C17         1.0799   -0.3830   -0.8626 C.3       1 <0>         0.2616
     23 C18         0.6717   -1.7139   -1.3411 C.1       1 <0>        -0.2007
     24 C19         0.3462   -2.7753   -1.7228 C.1       1 <0>        -0.1285
     25 C20        -0.0619   -4.1062   -2.2013 C.3       1 <0>        -0.0559
     26 C21         0.8810   -5.2778   -1.9201 C.3       1 <0>        -0.1641
     27 C22         0.7487   -4.7264   -3.3411 C.3       1 <0>        -0.1628
     28 O3          1.0490    0.5602   -1.9357 O.3       1 <0>        -0.5372
     29 C23        -2.2326    1.6067    1.1233 C.ar      1 <0>        -0.1164
     30 C24        -2.6283    1.9877   -0.1458 C.ar      1 <0>        -0.0629
     31 C25        -2.8409    3.3217   -0.4332 C.ar      1 <0>        -0.1938
     32 C26        -2.6569    4.2812    0.5543 C.ar      1 <0>         0.2142
     33 C27        -2.2594    3.8950    1.8281 C.ar      1 <0>        -0.1937
     34 C28        -2.0540    2.5587    2.1102 C.ar      1 <0>        -0.0763
     35 N1         -2.8706    5.6313    0.2670 N.pl3     1 <0>        -0.6387
     36 C29        -3.4008    6.0270   -1.0401 C.3       1 <0>         0.0887
     37 C30        -2.5646    6.6516    1.2728 C.3       1 <0>         0.0927
     38 H4          1.1018    2.0115    0.1636 H         1 <0>         0.0502
     39 H5         -0.5508    1.9578   -0.4953 H         1 <0>         0.0759
     40 H6         -0.2935    1.9298    1.2657 H         1 <0>         0.0815
     41 H7         -1.7366   -0.2656   -0.6761 H         1 <0>         0.0791
     42 H8         -1.2008   -1.5807    0.4061 H         1 <0>         0.0707
     43 H9         -3.8669    0.3758    4.2165 H         1 <0>         0.0848
     44 H10        -3.6978   -0.7185    2.8196 H         1 <0>         0.0937
     45 H11        -4.7531   -1.7786    4.8815 H         1 <0>         0.0972
     46 H12        -3.3173   -2.6224    4.2601 H         1 <0>         0.1006
     47 H13        -1.2081   -0.9729    7.1255 H         1 <0>         0.1396
     48 H14         0.2091    1.2681    5.2631 H         1 <0>         0.0764
     49 H15         0.7972   -0.2498    5.9943 H         1 <0>         0.1184
     50 H16         2.5179    0.9656    1.4253 H         1 <0>         0.0753
     51 H17         3.0104   -0.7020    1.8663 H         1 <0>         0.0763
     52 H18         3.1507    0.2781   -0.7331 H         1 <0>         0.0826
     53 H19         2.9083   -1.4513   -0.3552 H         1 <0>         0.0739
     54 H20        -1.1333   -4.3055   -2.1793 H         1 <0>         0.1276
     55 H21         1.8035   -5.0631   -1.3807 H         1 <0>         0.0973
     56 H22         0.4300   -6.2483   -1.7128 H         1 <0>         0.1052
     57 H23         0.2107   -5.3340   -4.0687 H         1 <0>         0.1053
     58 H24         1.5843   -4.1489   -3.7366 H         1 <0>         0.0980
     59 H25         1.6124    0.3223   -2.6848 H         1 <0>         0.3782
     60 H26        -2.7708    1.2413   -0.9132 H         1 <0>         0.1222
     61 H27        -3.1495    3.6187   -1.4246 H         1 <0>         0.1231
     62 H28        -2.1151    4.6385    2.5981 H         1 <0>         0.1204
     63 H29        -1.7493    2.2574    3.1015 H         1 <0>         0.1168
     64 H30        -3.4803    5.1489   -1.6809 H         1 <0>         0.0782
     65 H31        -4.3867    6.4738   -0.9121 H         1 <0>         0.0520
     66 H32        -2.7299    6.7527   -1.4997 H         1 <0>         0.0555
     67 H33        -1.5313    6.9783    1.1562 H         1 <0>         0.0482
     68 H34        -3.2320    7.5032    1.1411 H         1 <0>         0.0657
     69 H35        -2.7028    6.2323    2.2694 H         1 <0>         0.0684
@<TRIPOS>BOND
     1    1    2 1
     2    1   38 1
     3    1   39 1
     4    1   40 1
     5    2   18 1
     6    2   22 1
     7    2    3 1
     8    3    4 1
     9    3   41 1
    10    3   42 1
    11    4    5 1
    12    4    6 1
    13    4   29 1
    14    6   16 1
    15    6    7 2
    16    7   13 1
    17    7    8 1
    18    8    9 1
    19    8   43 1
    20    8   44 1
    21    9   10 1
    22    9   45 1
    23    9   46 1
    24   10   11 2
    25   10   12 1
    26   12   13 2
    27   12   47 1
    28   13   14 1
    29   14   15 1
    30   14   48 1
    31   14   49 1
    32   15   16 1
    33   16   17 1
    34   16   18 1
    35   18   19 1
    36   18   20 1
    37   20   21 1
    38   20   50 1
    39   20   51 1
    40   21   22 1
    41   21   52 1
    42   21   53 1
    43   22   23 1
    44   22   28 1
    45   23   24 3
    46   24   25 1
    47   25   27 1
    48   25   26 1
    49   25   54 1
    50   26   27 1
    51   26   55 1
    52   26   56 1
    53   27   57 1
    54   27   58 1
    55   28   59 1
    56   29   34 ar
    57   29   30 ar
    58   30   31 ar
    59   30   60 1
    60   31   32 ar
    61   31   61 1
    62   32   33 ar
    63   32   35 1
    64   33   34 ar
    65   33   62 1
    66   34   63 1
    67   35   36 1
    68   35   37 1
    69   36   64 1
    70   36   65 1
    71   36   66 1
    72   37   67 1
    73   37   68 1
    74   37   69 1
@<TRIPOS>MOLECULE
CHEMBL408648
   42    45     0     0     0
SMALL
USER_CHARGES

@<TRIPOS>ATOM
      1 C1         -1.1297    1.1958    0.0882 C.3       1 <0>         0.0533
      2 N1         -0.4911   -0.1216    0.0367 N.pl3     1 <0>        -0.4145
      3 C2         -0.3861   -0.9211   -1.0793 C.2       1 <0>         0.0612
      4 C3          0.2804   -2.0748   -0.7165 C.2       1 <0>        -0.1075
      5 C4          0.5843   -1.9735    0.6404 C.2       1 <0>        -0.1705
      6 C5          0.1056   -0.7608    1.0868 C.2       1 <0>         0.0908
      7 C6          0.2161   -0.2418    2.4652 C.ar      1 <0>        -0.0120
      8 C7          0.4338   -1.1185    3.5320 C.ar      1 <0>        -0.0447
      9 C8          0.5359   -0.6280    4.8111 C.ar      1 <0>        -0.0979
     10 C9          0.4256    0.7359    5.0648 C.ar      1 <0>         0.1195
     11 C10         0.2078    1.6115    3.9982 C.ar      1 <0>         0.0884
     12 C11         0.1095    1.1290    2.7112 C.ar      1 <0>        -0.1271
     13 F1          0.0981    2.9381    4.2291 F         1 <0>        -0.1335
     14 N2          0.5635    0.9840    6.4313 N.am      1 <0>        -0.6573
     15 C12         0.7640   -0.1438    7.1359 C.2       1 <0>         0.5391
     16 O1          0.9161   -0.2272    8.3363 O.2       1 <0>        -0.4776
     17 C13         0.7634   -1.2865    6.1489 C.3       1 <0>        -0.0450
     18 C14         2.1088   -2.0052    6.1668 C.3       1 <0>        -0.0926
     19 C15         2.3333   -2.6389    7.5419 C.3       1 <0>        -0.1314
     20 C16         1.2051   -3.6297    7.8362 C.3       1 <0>        -0.1155
     21 C17        -0.1353   -2.8918    7.8370 C.3       1 <0>        -0.1314
     22 C18        -0.3690   -2.2593    6.4629 C.3       1 <0>        -0.0926
     23 C19        -0.8811   -0.6107   -2.3866 C.1       1 <0>         0.2752
     24 N3         -1.2738   -0.3644   -3.4238 N.1       1 <0>        -0.4007
     25 H1         -0.3739    1.9711   -0.0372 H         1 <0>         0.0871
     26 H2         -1.8666    1.2739   -0.7112 H         1 <0>         0.0904
     27 H3         -1.6239    1.3226    1.0515 H         1 <0>         0.0982
     28 H4          0.5217   -2.9039   -1.3651 H         1 <0>         0.1558
     29 H5          1.1041   -2.7110    1.2339 H         1 <0>         0.1554
     30 H6          0.5212   -2.1796    3.3509 H         1 <0>         0.1469
     31 H7         -0.0547    1.8122    1.8910 H         1 <0>         0.1484
     32 H8          0.5198    1.8684    6.8274 H         1 <0>         0.4174
     33 H9          2.1151   -2.7830    5.4032 H         1 <0>         0.0833
     34 H10         2.9053   -1.2898    5.9624 H         1 <0>         0.0683
     35 H11         3.2887   -3.1636    7.5487 H         1 <0>         0.0684
     36 H12         2.3409   -1.8599    8.3042 H         1 <0>         0.0793
     37 H13         1.1929   -4.4044    7.0695 H         1 <0>         0.0623
     38 H14         1.3686   -4.0870    8.8120 H         1 <0>         0.0647
     39 H15        -0.9380   -3.5965    8.0540 H         1 <0>         0.0681
     40 H16        -0.1204   -2.1119    8.5983 H         1 <0>         0.0793
     41 H17        -1.3179   -1.7228    6.4668 H         1 <0>         0.0677
     42 H18        -0.3973   -3.0408    5.7036 H         1 <0>         0.0832
@<TRIPOS>BOND
     1    1    2 1
     2    1   25 1
     3    1   26 1
     4    1   27 1
     5    2    6 1
     6    2    3 1
     7    3    4 2
     8    3   23 1
     9    4    5 1
    10    4   28 1
    11    5    6 2
    12    5   29 1
    13    6    7 1
    14    7   12 ar
    15    7    8 ar
    16    8    9 ar
    17    8   30 1
    18    9   17 1
    19    9   10 ar
    20   10   11 ar
    21   10   14 1
    22   11   12 ar
    23   11   13 1
    24   12   31 1
    25   14   15 am
    26   14   32 1
    27   15   16 2
    28   15   17 1
    29   17   22 1
    30   17   18 1
    31   18   19 1
    32   18   33 1
    33   18   34 1
    34   19   20 1
    35   19   35 1
    36   19   36 1
    37   20   21 1
    38   20   37 1
    39   20   38 1
    40   21   22 1
    41   21   39 1
    42   21   40 1
    43   22   41 1
    44   22   42 1
    45   23   24 3
@<TRIPOS>MOLECULE
CHEMBL521141
   53    57     0     0     0
SMALL
USER_CHARGES

@<TRIPOS>ATOM
      1 C1         -0.8901    2.7919    1.1009 C.3       1 <0>         0.0556
      2 N1         -0.3628    1.4911    0.6813 N.pl3     1 <0>        -0.4154
      3 C2         -0.3588    1.0025   -0.6059 C.2       1 <0>         0.0547
      4 C3          0.2225   -0.2498   -0.5851 C.2       1 <0>        -0.1060
      5 C4          0.5766   -0.5251    0.7351 C.2       1 <0>        -0.1761
      6 C5          0.2131    0.5616    1.5007 C.2       1 <0>         0.0976
      7 C6          0.4095    0.6970    2.9583 C.ar      1 <0>        -0.0468
      8 C7          0.4105    1.9591    3.5580 C.ar      1 <0>        -0.0835
      9 C8          0.5948    2.0629    4.9116 C.ar      1 <0>        -0.1578
     10 C9          0.7867    0.9264    5.7183 C.ar      1 <0>         0.1946
     11 C10         0.7819   -0.3214    5.1250 C.ar      1 <0>        -0.1307
     12 C11         0.5901   -0.4305    3.7524 C.ar      1 <0>        -0.0507
     13 C12         0.9639   -1.6109    5.8643 C.3       1 <0>         0.2574
     14 O1          1.8395   -1.5544    6.9507 O.3       1 <0>        -0.3424
     15 C13         1.3717   -1.0156    8.1660 C.3       1 <0>         0.0448
     16 C14         1.2802    0.4702    8.1044 C.2       1 <0>         0.5001
     17 O2          1.5342    1.0767    9.1235 O.2       1 <0>        -0.5277
     18 N2          0.9533    1.1836    7.0598 N.am      1 <0>        -0.6446
     19 C15         1.4767   -2.6448    4.8952 C.ar      1 <0>        -0.0777
     20 C16         0.5865   -3.4341    4.1914 C.ar      1 <0>        -0.1045
     21 C17         1.0569   -4.3825    3.3024 C.ar      1 <0>        -0.1192
     22 C18         2.4175   -4.5412    3.1170 C.ar      1 <0>        -0.1101
     23 C19         3.3077   -3.7513    3.8201 C.ar      1 <0>        -0.1193
     24 C20         2.8372   -2.8000    4.7058 C.ar      1 <0>        -0.0867
     25 C21        -0.3833   -2.0653    6.3640 C.ar      1 <0>        -0.1293
     26 C22        -1.5306   -1.4200    5.9421 C.ar      1 <0>        -0.1026
     27 C23        -2.7663   -1.8367    6.4005 C.ar      1 <0>        -0.1190
     28 C24        -2.8548   -2.8991    7.2806 C.ar      1 <0>        -0.1083
     29 C25        -1.7075   -3.5450    7.7018 C.ar      1 <0>        -0.1184
     30 C26        -0.4721   -3.1309    7.2400 C.ar      1 <0>        -0.0981
     31 C27        -0.8685    1.6748   -1.7630 C.1       1 <0>         0.2768
     32 N3         -1.2728    2.2082   -2.6809 N.1       1 <0>        -0.4042
     33 H1         -0.0772    3.5168    1.1440 H         1 <0>         0.0857
     34 H2         -1.6395    3.1284    0.3845 H         1 <0>         0.0882
     35 H3         -1.3460    2.6983    2.0866 H         1 <0>         0.0974
     36 H4          0.3745   -0.8978   -1.4356 H         1 <0>         0.1540
     37 H5          1.0535   -1.4257    1.0925 H         1 <0>         0.1515
     38 H6          0.2675    2.8462    2.9588 H         1 <0>         0.1360
     39 H7          0.5930    3.0407    5.3704 H         1 <0>         0.1345
     40 H8          0.5854   -1.4082    3.2937 H         1 <0>         0.1464
     41 H9          0.3844   -1.4248    8.3805 H         1 <0>         0.1002
     42 H10         2.0548   -1.2976    8.9672 H         1 <0>         0.1439
     43 H11         0.7899    2.1135    7.2822 H         1 <0>         0.4007
     44 H12        -0.4765   -3.3101    4.3363 H         1 <0>         0.1251
     45 H13         0.3614   -4.9997    2.7531 H         1 <0>         0.1256
     46 H14         2.7850   -5.2826    2.4230 H         1 <0>         0.1239
     47 H15         4.3708   -3.8755    3.6754 H         1 <0>         0.1248
     48 H16         3.5326   -2.1802    5.2524 H         1 <0>         0.1276
     49 H17        -1.4615   -0.5900    5.2545 H         1 <0>         0.1260
     50 H18        -3.6627   -1.3321    6.0714 H         1 <0>         0.1246
     51 H19        -3.8202   -3.2242    7.6393 H         1 <0>         0.1251
     52 H20        -1.7765   -4.3747    8.3896 H         1 <0>         0.1273
     53 H21         0.4240   -3.6379    7.5662 H         1 <0>         0.1291
@<TRIPOS>BOND
     1    1    2 1
     2    1   33 1
     3    1   34 1
     4    1   35 1
     5    2    6 1
     6    2    3 1
     7    3    4 2
     8    3   31 1
     9    4    5 1
    10    4   36 1
    11    5    6 2
    12    5   37 1
    13    6    7 1
    14    7   12 ar
    15    7    8 ar
    16    8    9 ar
    17    8   38 1
    18    9   10 ar
    19    9   39 1
    20   10   18 1
    21   10   11 ar
    22   11   12 ar
    23   11   13 1
    24   12   40 1
    25   13   14 1
    26   13   19 1
    27   13   25 1
    28   14   15 1
    29   15   16 1
    30   15   41 1
    31   15   42 1
    32   16   17 2
    33   16   18 am
    34   18   43 1
    35   19   24 ar
    36   19   20 ar
    37   20   21 ar
    38   20   44 1
    39   21   22 ar
    40   21   45 1
    41   22   23 ar
    42   22   46 1
    43   23   24 ar
    44   23   47 1
    45   24   48 1
    46   25   30 ar
    47   25   26 ar
    48   26   27 ar
    49   26   49 1
    50   27   28 ar
    51   27   50 1
    52   28   29 ar
    53   28   51 1
    54   29   30 ar
    55   29   52 1
    56   30   53 1
    57   31   32 3
@<TRIPOS>MOLECULE
CHEMBL483246
   47    51     0     0     0
SMALL
USER_CHARGES

@<TRIPOS>ATOM
      1 C1         -1.5924   -1.1418   -0.3534 C.3       1 <0>         0.0552
      2 N1         -0.9621   -2.4029    0.0448 N.pl3     1 <0>        -0.4151
      3 C2         -0.9921   -3.5781   -0.6718 C.2       1 <0>         0.0569
      4 C3         -0.2844   -4.5284    0.0373 C.2       1 <0>        -0.1061
      5 C4          0.1821   -3.9202    1.2019 C.2       1 <0>        -0.1748
      6 C5         -0.2407   -2.6087    1.1869 C.2       1 <0>         0.0953
      7 C6          0.0359   -1.5989    2.2288 C.ar      1 <0>        -0.0458
      8 C7         -0.0302   -0.2358    1.9284 C.ar      1 <0>        -0.0737
      9 C8          0.2303    0.6847    2.9091 C.ar      1 <0>        -0.1571
     10 C9          0.5670    0.2920    4.2174 C.ar      1 <0>         0.2078
     11 C10         0.6285   -1.0560    4.5145 C.ar      1 <0>        -0.1405
     12 C11         0.3597   -1.9925    3.5228 C.ar      1 <0>        -0.0367
     13 C12         0.9639   -1.6109    5.8643 C.3       1 <0>         0.3557
     14 O1          1.8989   -0.8738    6.5941 O.3       1 <0>        -0.3387
     15 C13         1.4659    0.2866    7.2664 C.3       1 <0>         0.0521
     16 C14         1.2473    1.4159    6.3196 C.2       1 <0>         0.5001
     17 O2          1.5141    2.5280    6.7235 O.2       1 <0>        -0.5204
     18 N2          0.7965    1.3253    5.0967 N.am      1 <0>        -0.6457
     19 C15        -0.3063   -1.6966    6.6707 C.2       1 <0>        -0.0733
     20 C16        -1.5552   -1.7177    6.1714 C.2       1 <0>        -0.1636
     21 C17        -2.4357   -1.8037    7.2742 C.2       1 <0>        -0.2139
     22 C18        -1.6723   -1.8299    8.3814 C.2       1 <0>        -0.0258
     23 O3         -0.3832   -1.7706    8.0095 O.3       1 <0>        -0.1642
     24 C19         1.4985   -3.0082    5.6831 C.2       1 <0>        -0.0262
     25 C20         2.7938   -3.3429    5.5437 C.2       1 <0>        -0.1580
     26 C21         2.8406   -4.7488    5.4018 C.2       1 <0>        -0.2128
     27 C22         1.5711   -5.1892    5.4629 C.2       1 <0>        -0.0269
     28 O4          0.7629   -4.1310    5.6392 O.3       1 <0>        -0.1641
     29 C23        -1.6434   -3.7797   -1.9311 C.1       1 <0>         0.2765
     30 N3         -2.1600   -3.9396   -2.9301 N.1       1 <0>        -0.4030
     31 H1         -0.8595   -0.5129   -0.8587 H         1 <0>         0.0862
     32 H2         -2.4221   -1.3479   -1.0296 H         1 <0>         0.0889
     33 H3         -1.9647   -0.6263    0.5319 H         1 <0>         0.0974
     34 H4         -0.1224   -5.5550   -0.2562 H         1 <0>         0.1547
     35 H5          0.7721   -4.3909    1.9745 H         1 <0>         0.1513
     36 H6         -0.2844    0.0896    0.9305 H         1 <0>         0.1389
     37 H7          0.1763    1.7370    2.6721 H         1 <0>         0.1389
     38 H8          0.4074   -3.0449    3.7605 H         1 <0>         0.1432
     39 H9          0.5318    0.0703    7.7849 H         1 <0>         0.1024
     40 H10         2.2196    0.5763    7.9986 H         1 <0>         0.1522
     41 H11         0.5707    2.1901    4.7198 H         1 <0>         0.4037
     42 H12        -1.8321   -1.6764    5.1284 H         1 <0>         0.1499
     43 H13        -3.5144   -1.8408    7.2351 H         1 <0>         0.1535
     44 H14        -2.0345   -1.8922    9.3970 H         1 <0>         0.2086
     45 H15         3.6364   -2.6673    5.5402 H         1 <0>         0.1541
     46 H16         3.7258   -5.3533    5.2693 H         1 <0>         0.1540
     47 H17         1.2555   -6.2192    5.3872 H         1 <0>         0.2087
@<TRIPOS>BOND
     1    1    2 1
     2    1   31 1
     3    1   32 1
     4    1   33 1
     5    2    6 1
     6    2    3 1
     7    3    4 2
     8    3   29 1
     9    4    5 1
    10    4   34 1
    11    5    6 2
    12    5   35 1
    13    6    7 1
    14    7   12 ar
    15    7    8 ar
    16    8    9 ar
    17    8   36 1
    18    9   10 ar
    19    9   37 1
    20   10   18 1
    21   10   11 ar
    22   11   12 ar
    23   11   13 1
    24   12   38 1
    25   13   14 1
    26   13   19 1
    27   13   24 1
    28   14   15 1
    29   15   16 1
    30   15   39 1
    31   15   40 1
    32   16   17 2
    33   16   18 am
    34   18   41 1
    35   19   23 1
    36   19   20 2
    37   20   21 1
    38   20   42 1
    39   21   22 2
    40   21   43 1
    41   22   23 1
    42   22   44 1
    43   24   28 1
    44   24   25 2
    45   25   26 1
    46   25   45 1
    47   26   27 2
    48   26   46 1
    49   27   28 1
    50   27   47 1
    51   29   30 3
@<TRIPOS>MOLECULE
CHEMBL351465
   30    32     0     0     0
SMALL
USER_CHARGES

@<TRIPOS>ATOM
      1 C1         -0.0187    1.5258    0.0104 C.3       1 <0>        -0.1662
      2 C2          0.0021   -0.0041    0.0020 C.3       1 <0>         0.1379
      3 H1          0.5208   -0.3694   -0.8843 H         1 <0>         0.0853
      4 C3         -1.4318   -0.5566    0.0457 C.3       1 <0>        -0.0821
      5 C4         -1.4892   -1.3612    1.3259 C.ar      1 <0>        -0.1807
      6 C5         -2.5107   -2.0751    1.8811 C.ar      1 <0>        -0.0010
      7 C6         -2.3176   -2.7471    3.0945 C.ar      1 <0>        -0.1696
      8 C7         -3.3649   -3.4959    3.6892 C.2       1 <0>        -0.0566
      9 C8         -3.1375   -4.1327    4.8649 C.2       1 <0>        -0.1717
     10 C9         -1.8746   -4.0497    5.4865 C.2       1 <0>         0.5416
     11 N1         -0.8733   -3.3417    4.9317 N.am      1 <0>        -0.6241
     12 C10        -1.0644   -2.6797    3.7354 C.ar      1 <0>         0.2487
     13 C11        -0.0386   -1.9494    3.1579 C.ar      1 <0>        -0.2406
     14 C12        -0.2444   -1.2859    1.9488 C.ar      1 <0>         0.2663
     15 N2          0.6504   -0.5096    1.2142 N.pl3     1 <0>        -0.7238
     16 O1         -1.6868   -4.6280    6.5431 O.2       1 <0>        -0.5236
     17 C13        -4.7140   -3.5827    3.0232 C.3       1 <0>         0.5058
     18 F1         -5.5679   -4.3726    3.8006 F         1 <0>        -0.1683
     19 F2         -5.2543   -2.2986    2.8952 F         1 <0>        -0.1676
     20 F3         -4.5722   -4.1575    1.7557 F         1 <0>        -0.1676
     21 H2          1.0039    1.9031    0.0027 H         1 <0>         0.0611
     22 H3         -0.5459    1.8868   -0.8726 H         1 <0>         0.0739
     23 H4         -0.5289    1.8773    0.9072 H         1 <0>         0.0632
     24 H5         -2.1533    0.2599    0.0768 H         1 <0>         0.0925
     25 H6         -1.6187   -1.1980   -0.8155 H         1 <0>         0.0912
     26 H7         -3.4685   -2.1224    1.3844 H         1 <0>         0.1349
     27 H8         -3.9276   -4.7056    5.3274 H         1 <0>         0.1684
     28 H9          0.9237   -1.8946    3.6451 H         1 <0>         0.1351
     29 H10         1.5690   -0.3293    1.4682 H         1 <0>         0.4170
     30 H11        -0.0118   -3.2963    5.3753 H         1 <0>         0.4205
@<TRIPOS>BOND
     1    1    2 1
     2    1   21 1
     3    1   22 1
     4    1   23 1
     5    2    3 1
     6    2   15 1
     7    2    4 1
     8    4    5 1
     9    4   24 1
    10    4   25 1
    11    5   14 ar
    12    5    6 ar
    13    6    7 ar
    14    6   26 1
    15    7   12 ar
    16    7    8 1
    17    8    9 2
    18    8   17 1
    19    9   10 1
    20    9   27 1
    21   10   11 am
    22   10   16 2
    23   11   12 1
    24   11   30 1
    25   12   13 ar
    26   13   14 ar
    27   13   28 1
    28   14   15 1
    29   15   29 1
    30   17   18 1
    31   17   19 1
    32   17   20 1
@<TRIPOS>MOLECULE
CHEMBL196003
   54    57     0     0     0
SMALL
USER_CHARGES

@<TRIPOS>ATOM
      1 C1         -1.3899    1.7489   -0.9814 C.3       1 <0>        -0.1463
      2 C2         -1.7144    0.2750   -1.2325 C.3       1 <0>        -0.1788
      3 C3         -1.4130   -0.5244    0.0090 C.2       1 <0>         0.3722
      4 O1         -0.8920    0.0091    0.9589 O.2       1 <0>        -0.4484
      5 C4         -1.7616   -1.9894    0.0651 C.3       1 <0>        -0.1001
      6 C5         -1.2960   -2.5997    1.4092 C.3       1 <0>        -0.1187
      7 C6         -2.5621   -3.1915    2.0840 C.3       1 <0>        -0.1167
      8 C7         -3.5014   -3.4450    0.8974 C.3       1 <0>        -0.0752
      9 H1         -3.1954   -4.3372    0.3510 H         1 <0>         0.0821
     10 C8         -3.2775   -2.1733    0.0372 C.3       1 <0>        -0.0463
     11 C9         -3.8803   -2.4454   -1.3301 C.3       1 <0>        -0.1048
     12 C10        -5.4031   -2.5326   -1.1463 C.3       1 <0>        -0.1017
     13 C11        -5.7599   -3.5020   -0.0369 C.2       1 <0>        -0.0560
     14 C12        -6.7752   -4.3361   -0.2530 C.2       1 <0>        -0.1358
     15 C13        -7.5256   -4.3131   -1.5651 C.3       1 <0>        -0.0813
     16 C14        -7.7781   -5.7575   -2.0082 C.3       1 <0>        -0.1659
     17 C15        -8.3909   -6.5427   -0.8802 C.2       1 <0>         0.3867
     18 O2         -9.2237   -7.3912   -1.1291 O.2       1 <0>        -0.4708
     19 C16        -8.0181   -6.3139    0.4559 C.2       1 <0>        -0.2500
     20 C17        -7.2113   -5.2798    0.7759 C.2       1 <0>         0.0268
     21 C18        -6.7364   -5.0492    2.1896 C.3       1 <0>        -0.0958
     22 C19        -5.2480   -4.7090    2.1294 C.3       1 <0>        -0.1110
     23 C20        -4.9790   -3.5209    1.2580 C.3       1 <0>        -0.0462
     24 H2         -5.2479   -2.6350    1.8334 H         1 <0>         0.0885
     25 C21        -3.9611   -0.9719    0.6931 C.3       1 <0>        -0.1624
     26 C22        -1.1167   -2.7316   -1.1072 C.3       1 <0>        -0.1377
     27 H3         -1.6080    2.3270   -1.8793 H         1 <0>         0.0617
     28 H4         -1.9967    2.1188   -0.1549 H         1 <0>         0.0584
     29 H5         -0.3340    1.8510   -0.7310 H         1 <0>         0.0607
     30 H6         -2.7704    0.1729   -1.4828 H         1 <0>         0.0986
     31 H7         -1.1077   -0.0949   -2.0590 H         1 <0>         0.0980
     32 H8         -0.5652   -3.3881    1.2288 H         1 <0>         0.0699
     33 H9         -0.8626   -1.8249    2.0416 H         1 <0>         0.0841
     34 H10        -2.3258   -4.1251    2.5946 H         1 <0>         0.0696
     35 H11        -3.0012   -2.4730    2.7762 H         1 <0>         0.0698
     36 H12        -3.6348   -1.6318   -2.0126 H         1 <0>         0.0720
     37 H13        -3.4992   -3.3881   -1.7227 H         1 <0>         0.0743
     38 H14        -5.7910   -1.5449   -0.8975 H         1 <0>         0.0841
     39 H15        -5.8575   -2.8710   -2.0775 H         1 <0>         0.0867
     40 H16        -8.4777   -3.7990   -1.4333 H         1 <0>         0.0800
     41 H17        -6.9298   -3.7980   -2.3186 H         1 <0>         0.0938
     42 H18        -8.4564   -5.7608   -2.8615 H         1 <0>         0.0944
     43 H19        -6.8332   -6.2175   -2.2976 H         1 <0>         0.0987
     44 H20        -8.3805   -6.9707    1.2329 H         1 <0>         0.1345
     45 H21        -7.2873   -4.2201    2.6339 H         1 <0>         0.0885
     46 H22        -6.8854   -5.9522    2.7815 H         1 <0>         0.0851
     47 H23        -4.8894   -4.5047    3.1382 H         1 <0>         0.0782
     48 H24        -4.7044   -5.5639    1.7271 H         1 <0>         0.0669
     49 H25        -3.7924   -0.0820    0.0866 H         1 <0>         0.0591
     50 H26        -5.0317   -1.1609    0.7710 H         1 <0>         0.0713
     51 H27        -3.5461   -0.8168    1.6890 H         1 <0>         0.0622
     52 H28        -0.0344   -2.6101   -1.0628 H         1 <0>         0.0586
     53 H29        -1.3661   -3.7910   -1.0479 H         1 <0>         0.0687
     54 H30        -1.4900   -2.3223   -2.0459 H         1 <0>         0.0658
@<TRIPOS>BOND
     1    1    2 1
     2    1   27 1
     3    1   28 1
     4    1   29 1
     5    2    3 1
     6    2   30 1
     7    2   31 1
     8    3    4 2
     9    3    5 1
    10    5   10 1
    11    5    6 1
    12    5   26 1
    13    6    7 1
    14    6   32 1
    15    6   33 1
    16    7    8 1
    17    7   34 1
    18    7   35 1
    19    8    9 1
    20    8   23 1
    21    8   10 1
    22   10   11 1
    23   10   25 1
    24   11   12 1
    25   11   36 1
    26   11   37 1
    27   12   13 1
    28   12   38 1
    29   12   39 1
    30   13   23 1
    31   13   14 2
    32   14   20 1
    33   14   15 1
    34   15   16 1
    35   15   40 1
    36   15   41 1
    37   16   17 1
    38   16   42 1
    39   16   43 1
    40   17   18 2
    41   17   19 1
    42   19   20 2
    43   19   44 1
    44   20   21 1
    45   21   22 1
    46   21   45 1
    47   21   46 1
    48   22   23 1
    49   22   47 1
    50   22   48 1
    51   23   24 1
    52   25   49 1
    53   25   50 1
    54   25   51 1
    55   26   52 1
    56   26   53 1
    57   26   54 1
@<TRIPOS>MOLECULE
CHEMBL241425
   37    40     0     0     0
SMALL
USER_CHARGES

@<TRIPOS>ATOM
      1 C1          0.0387    1.4060    0.5666 C.ar      1 <0>        -0.0860
      2 C2          1.1957    2.1081    0.3022 C.ar      1 <0>        -0.0863
      3 C3          2.3915    1.4297    0.1142 C.ar      1 <0>         0.0817
      4 C4          2.4248    0.0344    0.1930 C.ar      1 <0>         0.0868
      5 C5          1.2641   -0.6715    0.4581 C.ar      1 <0>        -0.0857
      6 C6          0.0663    0.0137    0.6463 C.ar      1 <0>        -0.0304
      7 C7         -1.1811   -0.7377    0.9311 C.ar      1 <0>        -0.0119
      8 C8         -2.3793   -0.0547    1.1129 C.ar      1 <0>        -0.0711
      9 C9         -3.5481   -0.7662    1.3803 C.ar      1 <0>         0.0148
     10 C10        -3.5096   -2.1600    1.4639 C.ar      1 <0>        -0.1046
     11 C11        -2.3152   -2.8321    1.2826 C.ar      1 <0>         0.1131
     12 C12        -1.1546   -2.1292    1.0110 C.ar      1 <0>        -0.1189
     13 F1         -2.2822   -4.1802    1.3647 F         1 <0>        -0.1265
     14 C13        -4.7850   -0.0698    1.5691 C.1       1 <0>         0.2462
     15 N1         -5.7662    0.4827    1.7188 N.1       1 <0>        -0.3917
     16 N2          3.7439   -0.3499   -0.0358 N.pl3     1 <0>        -0.4587
     17 C14         4.4783    0.7590   -0.2440 C.2       1 <0>         0.5040
     18 S1          6.1594    0.7816   -0.5669 S.2       1 <0>        -0.5891
     19 N3          3.6907    1.8475   -0.1598 N.pl3     1 <0>        -0.5756
     20 H1          3.9795    2.7668   -0.2711 H         1 <0>         0.4492
     21 C15         4.2464   -1.7260   -0.0480 C.3       1 <0>         0.1156
     22 C16         3.3343   -2.7082   -0.8018 C.3       1 <0>        -0.1532
     23 C17         3.6355   -3.7221    0.3146 C.3       1 <0>        -0.1347
     24 C18         3.9103   -2.5158    1.2280 C.3       1 <0>        -0.1498
     25 H2         -0.8904    1.9358    0.7168 H         1 <0>         0.1468
     26 H3          1.1711    3.1861    0.2412 H         1 <0>         0.1449
     27 H4          1.2873   -1.7495    0.5194 H         1 <0>         0.1437
     28 H5         -2.4040    1.0230    1.0476 H         1 <0>         0.1469
     29 H6         -4.4138   -2.7132    1.6709 H         1 <0>         0.1506
     30 H7         -0.2252   -2.6596    0.8653 H         1 <0>         0.1460
     31 H8          5.2950   -1.7912   -0.3383 H         1 <0>         0.1507
     32 H9          2.2908   -2.3954   -0.8376 H         1 <0>         0.0916
     33 H10         3.7223   -3.0041   -1.7765 H         1 <0>         0.0873
     34 H11         2.7684   -4.3096    0.6164 H         1 <0>         0.0835
     35 H12         4.5167   -4.3341    0.1226 H         1 <0>         0.0946
     36 H13         4.7633   -2.6563    1.8920 H         1 <0>         0.0871
     37 H14         3.0243   -2.1503    1.7471 H         1 <0>         0.0893
@<TRIPOS>BOND
     1    1    6 ar
     2    1    2 ar
     3    1   25 1
     4    2    3 ar
     5    2   26 1
     6    3   19 1
     7    3    4 ar
     8    4    5 ar
     9    4   16 1
    10    5    6 ar
    11    5   27 1
    12    6    7 1
    13    7   12 ar
    14    7    8 ar
    15    8    9 ar
    16    8   28 1
    17    9   10 ar
    18    9   14 1
    19   10   11 ar
    20   10   29 1
    21   11   12 ar
    22   11   13 1
    23   12   30 1
    24   14   15 3
    25   16   17 1
    26   16   21 1
    27   17   18 2
    28   17   19 1
    29   19   20 1
    30   21   24 1
    31   21   22 1
    32   21   31 1
    33   22   23 1
    34   22   32 1
    35   22   33 1
    36   23   24 1
    37   23   34 1
    38   23   35 1
    39   24   36 1
    40   24   37 1
@<TRIPOS>MOLECULE
CHEMBL386915
   55    57     0     0     0
SMALL
USER_CHARGES

@<TRIPOS>ATOM
      1 C1          0.9469   -0.6264    1.1230 C.3       1 <0>        -0.1535
      2 C2          0.0051   -0.7787   -0.0731 C.3       1 <0>        -0.0127
      3 C3          0.2939   -2.1022   -0.7844 C.3       1 <0>        -0.1354
      4 C4         -1.4450   -0.7677    0.4148 C.3       1 <0>        -0.1538
      5 C5         -1.5794    0.1994    1.5927 C.3       1 <0>         0.0773
      6 C6         -3.0032    0.1313    2.1486 C.3       1 <0>         0.1048
      7 N1         -3.1447    1.0893    3.2479 N.pl3     1 <0>        -0.6308
      8 C7         -2.5465    0.8279    4.5683 C.3       1 <0>         0.0999
      9 C8         -3.5716    1.2451    5.6324 C.3       1 <0>         0.0453
     10 O1         -3.8910    2.6262    5.4480 O.3       1 <0>        -0.3133
     11 C9         -4.2193    3.0384    4.1949 C.ar      1 <0>         0.0625
     12 C10        -3.8501    2.2911    3.0776 C.ar      1 <0>         0.1503
     13 C11        -4.1818    2.7274    1.8052 C.ar      1 <0>        -0.1658
     14 C12        -4.8791    3.9108    1.6426 C.ar      1 <0>        -0.1047
     15 C13        -5.2446    4.6564    2.7475 C.ar      1 <0>        -0.1349
     16 C14        -4.9241    4.2197    4.0239 C.ar      1 <0>        -0.1090
     17 C15        -1.2844    1.6240    1.1192 C.3       1 <0>         0.4668
     18 F1         -2.0957    1.9277    0.0206 F         1 <0>        -0.1717
     19 F2         -1.5483    2.5244    2.1569 F         1 <0>        -0.1629
     20 F3          0.0606    1.7226    0.7470 F         1 <0>        -0.1560
     21 O2         -0.6507   -0.1643    2.6161 O.3       1 <0>        -0.5219
     22 C16         0.2213    0.3642   -1.0314 C.ar      1 <0>        -0.0665
     23 C17        -0.8509    0.9058   -1.7142 C.ar      1 <0>        -0.1333
     24 C18        -0.6527    1.9560   -2.5942 C.ar      1 <0>         0.0691
     25 C19         0.6199    2.4647   -2.7917 C.ar      1 <0>        -0.1218
     26 C20         1.6935    1.9251   -2.1104 C.ar      1 <0>        -0.1780
     27 C21         1.4956    0.8765   -1.2240 C.ar      1 <0>         0.1286
     28 O3          2.5505    0.3481   -0.5486 O.3       1 <0>        -0.2952
     29 C22         3.8341    0.9253   -0.7961 C.3       1 <0>         0.0159
     30 F4         -1.7019    2.4847   -3.2612 F         1 <0>        -0.1400
     31 H1          1.9734   -0.8034    0.8020 H         1 <0>         0.0670
     32 H2          0.8613    0.3825    1.5267 H         1 <0>         0.0943
     33 H3          0.6769   -1.3497    1.8924 H         1 <0>         0.0551
     34 H4          0.0536   -2.9319   -0.1196 H         1 <0>         0.0604
     35 H5         -0.3152   -2.1707   -1.6858 H         1 <0>         0.0547
     36 H6          1.3489   -2.1468   -1.0545 H         1 <0>         0.0637
     37 H7         -2.0987   -0.4460   -0.3959 H         1 <0>         0.0932
     38 H8         -1.7285   -1.7707    0.7340 H         1 <0>         0.0966
     39 H9         -3.7136    0.3766    1.3591 H         1 <0>         0.0990
     40 H10        -3.2020   -0.8754    2.5162 H         1 <0>         0.0940
     41 H11        -2.3206   -0.2337    4.6684 H         1 <0>         0.0897
     42 H12        -1.6344    1.4134    4.6836 H         1 <0>         0.0767
     43 H13        -4.4745    0.6439    5.5255 H         1 <0>         0.0644
     44 H14        -3.1476    1.0976    6.6257 H         1 <0>         0.1143
     45 H15        -3.8967    2.1444    0.9419 H         1 <0>         0.1251
     46 H16        -5.1380    4.2527    0.6514 H         1 <0>         0.1232
     47 H17        -5.7896    5.5796    2.6167 H         1 <0>         0.1260
     48 H18        -5.2118    4.8057    4.8842 H         1 <0>         0.1299
     49 H19        -0.7787   -1.0574    2.9641 H         1 <0>         0.3864
     50 H20        -1.8439    0.5095   -1.5616 H         1 <0>         0.1447
     51 H21         0.7732    3.2835   -3.4790 H         1 <0>         0.1357
     52 H22         2.6861    2.3218   -2.2649 H         1 <0>         0.1365
     53 H23         4.0813    0.8219   -1.8527 H         1 <0>         0.0544
     54 H24         3.8149    1.9819   -0.5292 H         1 <0>         0.0551
     55 H25         4.5851    0.4123   -0.1953 H         1 <0>         0.1004
@<TRIPOS>BOND
     1    1    2 1
     2    1   31 1
     3    1   32 1
     4    1   33 1
     5    2    3 1
     6    2    4 1
     7    2   22 1
     8    3   34 1
     9    3   35 1
    10    3   36 1
    11    4    5 1
    12    4   37 1
    13    4   38 1
    14    5    6 1
    15    5   17 1
    16    5   21 1
    17    6    7 1
    18    6   39 1
    19    6   40 1
    20    7   12 1
    21    7    8 1
    22    8    9 1
    23    8   41 1
    24    8   42 1
    25    9   10 1
    26    9   43 1
    27    9   44 1
    28   10   11 1
    29   11   16 ar
    30   11   12 ar
    31   12   13 ar
    32   13   14 ar
    33   13   45 1
    34   14   15 ar
    35   14   46 1
    36   15   16 ar
    37   15   47 1
    38   16   48 1
    39   17   18 1
    40   17   19 1
    41   17   20 1
    42   21   49 1
    43   22   27 ar
    44   22   23 ar
    45   23   24 ar
    46   23   50 1
    47   24   25 ar
    48   24   30 1
    49   25   26 ar
    50   25   51 1
    51   26   27 ar
    52   26   52 1
    53   27   28 1
    54   28   29 1
    55   29   53 1
    56   29   54 1
    57   29   55 1
@<TRIPOS>MOLECULE
CHEMBL386915__1
   55    57     0     0     0
SMALL
USER_CHARGES

@<TRIPOS>ATOM
      1 C1         -0.2123    0.6758   -1.9436 C.3       1 <0>        -0.1369
      2 C2         -0.3783    0.8439   -0.4319 C.3       1 <0>        -0.0110
      3 C3         -0.6594    2.3130   -0.1100 C.3       1 <0>        -0.1531
      4 C4         -1.5470   -0.0169    0.0517 C.3       1 <0>        -0.1550
      5 C5         -2.1737    0.6241    1.2916 C.3       1 <0>         0.0764
      6 C6         -3.4095   -0.1752    1.7096 C.3       1 <0>         0.1016
      7 N1         -4.0455    0.4742    2.8585 N.pl3     1 <0>        -0.6315
      8 C7         -4.9855    1.5936    2.6771 C.3       1 <0>         0.0975
      9 C8         -4.6685    2.6439    3.7512 C.3       1 <0>         0.0478
     10 O1         -4.7930    2.0373    5.0397 O.3       1 <0>        -0.3139
     11 C9         -4.1614    0.8512    5.2449 C.ar      1 <0>         0.0678
     12 C10        -3.7847    0.0474    4.1702 C.ar      1 <0>         0.1491
     13 C11        -3.1508   -1.1642    4.3931 C.ar      1 <0>        -0.1622
     14 C12        -2.8936   -1.5793    5.6873 C.ar      1 <0>        -0.1045
     15 C13        -3.2681   -0.7868    6.7559 C.ar      1 <0>        -0.1344
     16 C14        -3.8938    0.4313    6.5386 C.ar      1 <0>        -0.1097
     17 C15        -1.1564    0.6251    2.4345 C.3       1 <0>         0.4656
     18 F1         -0.0066    1.3145    2.0347 F         1 <0>        -0.1540
     19 F2         -1.7125    1.2550    3.5531 F         1 <0>        -0.1648
     20 F3         -0.8202   -0.6931    2.7607 F         1 <0>        -0.1713
     21 O2         -2.5547    1.9684    0.9919 O.3       1 <0>        -0.5195
     22 C16         0.8864    0.4104    0.2635 C.ar      1 <0>        -0.0480
     23 C17         0.8875   -0.7242    1.0520 C.ar      1 <0>        -0.1573
     24 C18         2.0492   -1.1230    1.6906 C.ar      1 <0>         0.0751
     25 C19         3.2114   -0.3854    1.5406 C.ar      1 <0>        -0.1272
     26 C20         3.2132    0.7493    0.7530 C.ar      1 <0>        -0.1716
     27 C21         2.0512    1.1469    0.1078 C.ar      1 <0>         0.1164
     28 O3          2.0529    2.2604   -0.6722 O.3       1 <0>        -0.3021
     29 C22         3.2880    2.9699   -0.7872 C.3       1 <0>         0.0210
     30 F4          2.0488   -2.2327    2.4613 F         1 <0>        -0.1392
     31 H1          0.5610    1.3552   -2.3020 H         1 <0>         0.0694
     32 H2          0.0755   -0.3518   -2.1654 H         1 <0>         0.0532
     33 H3         -1.1553    0.9043   -2.4402 H         1 <0>         0.0591
     34 H4         -1.6038    2.6106   -0.5657 H         1 <0>         0.0586
     35 H5         -0.7205    2.4430    0.9705 H         1 <0>         0.0925
     36 H6          0.1458    2.9322   -0.5054 H         1 <0>         0.0596
     37 H7         -2.2955   -0.0897   -0.7373 H         1 <0>         0.0974
     38 H8         -1.1847   -1.0140    0.3019 H         1 <0>         0.0938
     39 H9         -4.1142   -0.2154    0.8789 H         1 <0>         0.0989
     40 H10        -3.1121   -1.1875    1.9831 H         1 <0>         0.0996
     41 H11        -4.8567    2.0279    1.6856 H         1 <0>         0.0920
     42 H12        -6.0096    1.2398    2.7965 H         1 <0>         0.0699
     43 H13        -3.6503    3.0088    3.6161 H         1 <0>         0.0722
     44 H14        -5.3701    3.4740    3.6688 H         1 <0>         0.1120
     45 H15        -2.8577   -1.7831    3.5581 H         1 <0>         0.1219
     46 H16        -2.4001   -2.5238    5.8629 H         1 <0>         0.1234
     47 H17        -3.0650   -1.1139    7.7649 H         1 <0>         0.1258
     48 H18        -4.1846    1.0472    7.3767 H         1 <0>         0.1296
     49 H19        -3.2562    2.0401    0.3302 H         1 <0>         0.3825
     50 H20        -0.0185   -1.3001    1.1704 H         1 <0>         0.1543
     51 H21         4.1169   -0.6972    2.0399 H         1 <0>         0.1358
     52 H22         4.1198    1.3247    0.6365 H         1 <0>         0.1367
     53 H23         3.6088    3.3032    0.1997 H         1 <0>         0.0552
     54 H24         4.0462    2.3128   -1.2131 H         1 <0>         0.0550
     55 H25         3.1509    3.8350   -1.4360 H         1 <0>         0.1008
@<TRIPOS>BOND
     1    1    2 1
     2    1   31 1
     3    1   32 1
     4    1   33 1
     5    2    3 1
     6    2    4 1
     7    2   22 1
     8    3   34 1
     9    3   35 1
    10    3   36 1
    11    4    5 1
    12    4   37 1
    13    4   38 1
    14    5    6 1
    15    5   17 1
    16    5   21 1
    17    6    7 1
    18    6   39 1
    19    6   40 1
    20    7   12 1
    21    7    8 1
    22    8    9 1
    23    8   41 1
    24    8   42 1
    25    9   10 1
    26    9   43 1
    27    9   44 1
    28   10   11 1
    29   11   16 ar
    30   11   12 ar
    31   12   13 ar
    32   13   14 ar
    33   13   45 1
    34   14   15 ar
    35   14   46 1
    36   15   16 ar
    37   15   47 1
    38   16   48 1
    39   17   18 1
    40   17   19 1
    41   17   20 1
    42   21   49 1
    43   22   27 ar
    44   22   23 ar
    45   23   24 ar
    46   23   50 1
    47   24   25 ar
    48   24   30 1
    49   25   26 ar
    50   25   51 1
    51   26   27 ar
    52   26   52 1
    53   27   28 1
    54   28   29 1
    55   29   53 1
    56   29   54 1
    57   29   55 1
@<TRIPOS>MOLECULE
CHEMBL1215406
   42    43     0     0     0
SMALL
USER_CHARGES

@<TRIPOS>ATOM
      1 C1          0.2869    1.6321   -0.2824 C.3       1 <0>        -0.1522
      2 C2          0.2500    0.1059   -0.1820 C.3       1 <0>        -0.1233
      3 C3          0.8271   -0.5035   -1.4613 C.3       1 <0>        -0.0986
      4 C4          0.7907   -2.0068   -1.3624 C.2       1 <0>         0.1973
      5 C5         -0.2676   -2.6792   -1.8485 C.2       1 <0>        -0.2291
      6 C6         -0.3428   -4.1781   -1.7797 C.3       1 <0>         0.0809
      7 C7          0.6583   -4.7171   -0.7978 C.2       1 <0>        -0.1400
      8 C8          1.6776   -3.9660   -0.3533 C.2       1 <0>         0.2038
      9 N1          1.8366   -2.6713   -0.7844 N.pl3     1 <0>        -0.6312
     10 C9          2.6627   -4.5518    0.6252 C.3       1 <0>        -0.1327
     11 C10         0.5216   -6.0620   -0.3254 C.1       1 <0>         0.2642
     12 N2          0.4131   -7.1289    0.0493 N.1       1 <0>        -0.4204
     13 C11        -0.0584   -4.7522   -3.1437 C.ar      1 <0>        -0.0733
     14 C12         1.1559   -4.5075   -3.7573 C.ar      1 <0>        -0.0836
     15 C13         1.4169   -5.0340   -5.0084 C.ar      1 <0>        -0.1137
     16 C14         0.4637   -5.8056   -5.6469 C.ar      1 <0>        -0.1056
     17 C15        -0.7506   -6.0509   -5.0345 C.ar      1 <0>        -0.1089
     18 C16        -1.0103   -5.5288   -3.7796 C.ar      1 <0>        -0.0299
     19 Cl1        -2.5329   -5.8419   -3.0069 Cl        1 <0>        -0.0648
     20 C17        -1.3329   -1.9600   -2.4368 C.2       1 <0>         0.5342
     21 O1         -2.3485   -1.7481   -1.8007 O.2       1 <0>        -0.4928
     22 O2         -1.2236   -1.5081   -3.7038 O.3       1 <0>        -0.3469
     23 C18        -2.3385   -0.7889   -4.2345 C.3       1 <0>         0.0298
     24 H1          1.3176    1.9630   -0.4096 H         1 <0>         0.0570
     25 H2         -0.3064    1.9544   -1.1381 H         1 <0>         0.0565
     26 H3         -0.1242    2.0663    0.6289 H         1 <0>         0.0608
     27 H4          0.8432   -0.2164    0.6737 H         1 <0>         0.0680
     28 H5         -0.7808   -0.2250   -0.0548 H         1 <0>         0.0729
     29 H6          0.2338   -0.1812   -2.3170 H         1 <0>         0.0945
     30 H7          1.8578   -0.1726   -1.5885 H         1 <0>         0.0903
     31 H8         -1.3449   -4.4732   -1.4688 H         1 <0>         0.0998
     32 H9          2.6912   -2.2255   -0.6756 H         1 <0>         0.4233
     33 H10         3.4820   -5.0201    0.0796 H         1 <0>         0.0934
     34 H11         3.0563   -3.7601    1.2626 H         1 <0>         0.0858
     35 H12         2.1623   -5.2991    1.2411 H         1 <0>         0.0890
     36 H13         1.9008   -3.9046   -3.2592 H         1 <0>         0.1261
     37 H14         2.3657   -4.8423   -5.4875 H         1 <0>         0.1291
     38 H15         0.6681   -6.2164   -6.6246 H         1 <0>         0.1322
     39 H16        -1.4952   -6.6533   -5.5335 H         1 <0>         0.1338
     40 H17        -2.1201   -0.4835   -5.2578 H         1 <0>         0.1023
     41 H18        -3.2208   -1.4290   -4.2269 H         1 <0>         0.0614
     42 H19        -2.5252    0.0943   -3.6237 H         1 <0>         0.0606
@<TRIPOS>BOND
     1    1    2 1
     2    1   24 1
     3    1   25 1
     4    1   26 1
     5    2    3 1
     6    2   27 1
     7    2   28 1
     8    3    4 1
     9    3   29 1
    10    3   30 1
    11    4    9 1
    12    4    5 2
    13    5    6 1
    14    5   20 1
    15    6    7 1
    16    6   13 1
    17    6   31 1
    18    7    8 2
    19    7   11 1
    20    8    9 1
    21    8   10 1
    22    9   32 1
    23   10   33 1
    24   10   34 1
    25   10   35 1
    26   11   12 3
    27   13   18 ar
    28   13   14 ar
    29   14   15 ar
    30   14   36 1
    31   15   16 ar
    32   15   37 1
    33   16   17 ar
    34   16   38 1
    35   17   18 ar
    36   17   39 1
    37   18   19 1
    38   20   21 2
    39   20   22 1
    40   22   23 1
    41   23   40 1
    42   23   41 1
    43   23   42 1
@<TRIPOS>MOLECULE
CHEMBL1215406__1
   42    43     0     0     0
SMALL
USER_CHARGES

@<TRIPOS>ATOM
      1 C1          0.2670    1.6231   -0.2536 C.3       1 <0>        -0.1527
      2 C2          0.2334    0.0962   -0.1632 C.3       1 <0>        -0.1237
      3 C3          0.8202   -0.5035   -1.4426 C.3       1 <0>        -0.0991
      4 C4          0.7871   -2.0075   -1.3537 C.2       1 <0>         0.1952
      5 C5         -0.2676   -2.6792   -1.8485 C.2       1 <0>        -0.2273
      6 C6         -0.3476   -4.1776   -1.7739 C.3       1 <0>         0.0815
      7 C7          0.9999   -4.7684   -1.4705 C.2       1 <0>        -0.1426
      8 C8          2.0026   -4.0162   -0.9914 C.2       1 <0>         0.2047
      9 N1          1.8322   -2.6732   -0.7758 N.pl3     1 <0>        -0.6285
     10 C9          3.3347   -4.6543   -0.6925 C.3       1 <0>        -0.1314
     11 C10         1.2190   -6.1653   -1.6970 C.1       1 <0>         0.2645
     12 N2          1.3928   -7.2735   -1.8767 N.1       1 <0>        -0.4209
     13 C11        -1.3168   -4.5692   -0.6885 C.ar      1 <0>        -0.0671
     14 C12        -1.0904   -4.1731    0.6164 C.ar      1 <0>        -0.0838
     15 C13        -1.9793   -4.5322    1.6121 C.ar      1 <0>        -0.1141
     16 C14        -3.0954   -5.2878    1.3036 C.ar      1 <0>        -0.1061
     17 C15        -3.3228   -5.6844   -0.0005 C.ar      1 <0>        -0.1085
     18 C16        -2.4363   -5.3203   -0.9987 C.ar      1 <0>        -0.0263
     19 Cl1        -2.7247   -5.8126   -2.6382 Cl        1 <0>        -0.0683
     20 C17        -1.3244   -1.9598   -2.4516 C.2       1 <0>         0.5310
     21 O1         -2.3431   -1.7352   -1.8249 O.2       1 <0>        -0.4842
     22 O2         -1.2036   -1.5218   -3.7225 O.3       1 <0>        -0.3526
     23 C18        -2.3104   -0.8015   -4.2684 C.3       1 <0>         0.0301
     24 H1          1.2977    1.9575   -0.3720 H         1 <0>         0.0570
     25 H2         -0.3216    1.9494   -1.1110 H         1 <0>         0.0565
     26 H3         -0.1511    2.0503    0.6579 H         1 <0>         0.0607
     27 H4          0.8220   -0.2301    0.6942 H         1 <0>         0.0666
     28 H5         -0.7973   -0.2382   -0.0448 H         1 <0>         0.0744
     29 H6          0.2316   -0.1772   -2.3001 H         1 <0>         0.0946
     30 H7          1.8509   -0.1691   -1.5611 H         1 <0>         0.0916
     31 H8         -0.7029   -4.5659   -2.7284 H         1 <0>         0.0977
     32 H9          2.4549   -2.1940   -0.2069 H         1 <0>         0.4220
     33 H10         3.9660   -4.6103   -1.5801 H         1 <0>         0.0949
     34 H11         3.8188   -4.1192    0.1245 H         1 <0>         0.0844
     35 H12         3.1830   -5.6949   -0.4058 H         1 <0>         0.0884
     36 H13        -0.2186   -3.5832    0.8580 H         1 <0>         0.1237
     37 H14        -1.8018   -4.2228    2.6315 H         1 <0>         0.1281
     38 H15        -3.7894   -5.5684    2.0821 H         1 <0>         0.1317
     39 H16        -4.1944   -6.2748   -0.2413 H         1 <0>         0.1333
     40 H17        -2.0830   -0.5081   -5.2933 H         1 <0>         0.1022
     41 H18        -3.1965   -1.4362   -4.2604 H         1 <0>         0.0616
     42 H19        -2.4960    0.0892   -3.6681 H         1 <0>         0.0606
@<TRIPOS>BOND
     1    1    2 1
     2    1   24 1
     3    1   25 1
     4    1   26 1
     5    2    3 1
     6    2   27 1
     7    2   28 1
     8    3    4 1
     9    3   29 1
    10    3   30 1
    11    4    9 1
    12    4    5 2
    13    5    6 1
    14    5   20 1
    15    6    7 1
    16    6   13 1
    17    6   31 1
    18    7    8 2
    19    7   11 1
    20    8    9 1
    21    8   10 1
    22    9   32 1
    23   10   33 1
    24   10   34 1
    25   10   35 1
    26   11   12 3
    27   13   18 ar
    28   13   14 ar
    29   14   15 ar
    30   14   36 1
    31   15   16 ar
    32   15   37 1
    33   16   17 ar
    34   16   38 1
    35   17   18 ar
    36   17   39 1
    37   18   19 1
    38   20   21 2
    39   20   22 1
    40   22   23 1
    41   23   40 1
    42   23   41 1
    43   23   42 1
@<TRIPOS>MOLECULE
CHEMBL566981
   36    38     0     0     0
SMALL
USER_CHARGES

@<TRIPOS>ATOM
      1 C1          0.1183   -0.2064   -0.6926 C.3       1 <0>        -0.1404
      2 C2          0.2517   -1.6492   -0.2014 C.3       1 <0>        -0.0258
      3 C3         -1.1381   -2.2694   -0.0032 C.3       1 <0>        -0.1674
      4 C4         -1.2102   -2.6306    1.4604 C.2       1 <0>         0.4060
      5 O1         -2.1539   -3.1480    2.0198 O.2       1 <0>        -0.4411
      6 C5          0.0614   -2.2470    2.0906 C.ar      1 <0>        -0.1891
      7 C6          0.9243   -1.6769    1.1505 C.ar      1 <0>        -0.0264
      8 C7          2.1664   -1.2482    1.5314 C.ar      1 <0>        -0.0940
      9 C8          2.5781   -1.3775    2.8608 C.ar      1 <0>         0.0191
     10 C9          1.7175   -1.9474    3.8042 C.ar      1 <0>        -0.1435
     11 C10         0.4798   -2.3768    3.4268 C.ar      1 <0>        -0.0415
     12 C11         3.9185   -0.9140    3.2679 C.2       1 <0>         0.0797
     13 C12         4.9985   -0.7302    2.4305 C.2       1 <0>        -0.1671
     14 C13         6.0655   -0.2862    3.2100 C.2       1 <0>        -0.1108
     15 C14         5.6205   -0.2051    4.5147 C.2       1 <0>         0.0636
     16 N1          4.3011   -0.5872    4.5393 N.pl3     1 <0>        -0.4120
     17 C15         3.4478   -0.6388    5.7291 C.3       1 <0>         0.0542
     18 C16         6.3971    0.2098    5.6440 C.1       1 <0>         0.2750
     19 N2          7.0132    0.5390    6.5399 N.1       1 <0>        -0.3995
     20 C17         1.0582   -2.4738   -1.2066 C.3       1 <0>        -0.1403
     21 H1          1.1083    0.2420   -0.7763 H         1 <0>         0.0650
     22 H2         -0.3679   -0.1982   -1.6681 H         1 <0>         0.0677
     23 H3         -0.4806    0.3650    0.0166 H         1 <0>         0.0600
     24 H4         -1.9137   -1.5450   -0.2519 H         1 <0>         0.1121
     25 H5         -1.2439   -3.1630   -0.6183 H         1 <0>         0.1123
     26 H6          2.8308   -0.8081    0.8025 H         1 <0>         0.1371
     27 H7          2.0337   -2.0482    4.8320 H         1 <0>         0.1342
     28 H8         -0.1829   -2.8166    4.1575 H         1 <0>         0.1330
     29 H9          5.0148   -0.8999    1.3641 H         1 <0>         0.1549
     30 H10         7.0586   -0.0493    2.8579 H         1 <0>         0.1560
     31 H11         3.4418   -1.6531    6.1282 H         1 <0>         0.0874
     32 H12         3.8346    0.0462    6.4835 H         1 <0>         0.0893
     33 H13         2.4322   -0.3479    5.4606 H         1 <0>         0.0991
     34 H14         2.0562   -2.0475   -1.3086 H         1 <0>         0.0651
     35 H15         1.1366   -3.5020   -0.8534 H         1 <0>         0.0607
     36 H16         0.5563   -2.4593   -2.1741 H         1 <0>         0.0675
@<TRIPOS>BOND
     1    1    2 1
     2    1   21 1
     3    1   22 1
     4    1   23 1
     5    2    7 1
     6    2    3 1
     7    2   20 1
     8    3    4 1
     9    3   24 1
    10    3   25 1
    11    4    5 2
    12    4    6 1
    13    6   11 ar
    14    6    7 ar
    15    7    8 ar
    16    8    9 ar
    17    8   26 1
    18    9   10 ar
    19    9   12 1
    20   10   11 ar
    21   10   27 1
    22   11   28 1
    23   12   16 1
    24   12   13 2
    25   13   14 1
    26   13   29 1
    27   14   15 2
    28   14   30 1
    29   15   16 1
    30   15   18 1
    31   16   17 1
    32   17   31 1
    33   17   32 1
    34   17   33 1
    35   18   19 3
    36   20   34 1
    37   20   35 1
    38   20   36 1
@<TRIPOS>MOLECULE
CHEMBL551423
   53    56     0     0     0
SMALL
USER_CHARGES

@<TRIPOS>ATOM
      1 C1         -0.2358    1.3944    0.3791 C.ar      1 <0>        -0.1039
      2 C2          0.9113    2.1638    0.4427 C.ar      1 <0>        -0.0937
      3 C3          2.1528    1.5609    0.3718 C.ar      1 <0>        -0.1063
      4 C4          2.2477    0.1870    0.2376 C.ar      1 <0>        -0.0261
      5 C5          1.0998   -0.5822    0.1744 C.ar      1 <0>        -0.1122
      6 C6         -0.1415    0.0220    0.2450 C.ar      1 <0>        -0.0912
      7 C7          1.2023   -2.0786    0.0278 C.3       1 <0>         0.1527
      8 N1          1.4887   -2.6787    1.3331 N.pl3     1 <0>        -0.5997
      9 C8          0.4426   -3.0657    2.1658 C.ar      1 <0>         0.2545
     10 C9          0.7132   -3.7426    3.3520 C.ar      1 <0>        -0.2348
     11 C10        -0.3179   -4.1270    4.1781 C.ar      1 <0>        -0.0030
     12 C11        -1.6397   -3.8373    3.8255 C.ar      1 <0>        -0.0594
     13 C12        -1.9088   -3.1569    2.6328 C.ar      1 <0>         0.0635
     14 C13        -0.8702   -2.7702    1.8134 C.ar      1 <0>        -0.1808
     15 Cl1        -3.5476   -2.7947    2.1891 Cl        1 <0>        -0.0271
     16 C14        -2.7153   -4.2363    4.6826 C.1       1 <0>         0.2368
     17 N2         -3.5685   -4.5528    5.3626 N.1       1 <0>        -0.3829
     18 C15         2.8761   -2.8716    1.7622 C.3       1 <0>         0.1299
     19 H1          3.5620   -2.5513    0.9779 H         1 <0>         0.1433
     20 C16         3.1257   -4.3546    2.1205 C.3       1 <0>        -0.1773
     21 C17         4.0402   -4.2605    3.3677 C.3       1 <0>        -0.0095
     22 N3          3.4974   -3.0874    4.0994 N.4       1 <0>        -0.3973
     23 C18         3.1474   -2.0904    3.0612 C.3       1 <0>        -0.0304
     24 C19         4.5166   -2.5386    5.0038 C.3       1 <0>         0.0575
     25 C20         4.8120   -3.5374    6.0929 C.ar      1 <0>         0.0527
     26 C21         5.8801   -4.4038    5.9539 C.ar      1 <0>        -0.1439
     27 C22         6.1433   -5.3187    6.9615 C.ar      1 <0>        -0.0674
     28 C23         5.3186   -5.3282    8.0764 C.ar      1 <0>        -0.1349
     29 C24         4.2694   -4.4316    8.1454 C.ar      1 <0>         0.1112
     30 N4          4.0520   -3.5712    7.1698 N.ar      1 <0>        -0.4662
     31 Cl2         3.8069   -0.5710    0.1478 Cl        1 <0>        -0.0742
     32 H2         -1.2057    1.8656    0.4387 H         1 <0>         0.1367
     33 H3          0.8371    3.2361    0.5475 H         1 <0>         0.1387
     34 H4          3.0487    2.1620    0.4208 H         1 <0>         0.1379
     35 H5         -1.0379   -0.5784    0.1953 H         1 <0>         0.1348
     36 H6          0.2601   -2.4717   -0.3540 H         1 <0>         0.1043
     37 H7          2.0057   -2.3213   -0.6678 H         1 <0>         0.1034
     38 H8          1.7341   -3.9666    3.6240 H         1 <0>         0.1172
     39 H9         -0.1065   -4.6523    5.0978 H         1 <0>         0.1472
     40 H10        -1.0761   -2.2411    0.8946 H         1 <0>         0.1511
     41 H11         2.1890   -4.8551    2.3660 H         1 <0>         0.1210
     42 H12         3.6364   -4.8677    1.3056 H         1 <0>         0.1266
     43 H13         3.9588   -5.1631    3.9734 H         1 <0>         0.1378
     44 H14         5.0751   -4.0853    3.0736 H         1 <0>         0.1417
     45 H15         3.9774   -1.3998    2.9128 H         1 <0>         0.1435
     46 H16         2.2533   -1.5423    3.3585 H         1 <0>         0.1421
     47 H17         5.4280   -2.3331    4.4423 H         1 <0>         0.1446
     48 H18         4.1479   -1.6144    5.4487 H         1 <0>         0.1460
     49 H19         6.5015   -4.3685    5.0713 H         1 <0>         0.1437
     50 H20         6.9707   -6.0081    6.8801 H         1 <0>         0.1498
     51 H21         5.4939   -6.0276    8.8804 H         1 <0>         0.1511
     52 H22         3.6225   -4.4326    9.0102 H         1 <0>         0.1718
     53 H23         2.6747   -3.3522    4.6200 H         1 <0>         0.4291
@<TRIPOS>BOND
     1    1    6 ar
     2    1    2 ar
     3    1   32 1
     4    2    3 ar
     5    2   33 1
     6    3    4 ar
     7    3   34 1
     8    4    5 ar
     9    4   31 1
    10    5    6 ar
    11    5    7 1
    12    6   35 1
    13    7    8 1
    14    7   36 1
    15    7   37 1
    16    8    9 1
    17    8   18 1
    18    9   14 ar
    19    9   10 ar
    20   10   11 ar
    21   10   38 1
    22   11   12 ar
    23   11   39 1
    24   12   13 ar
    25   12   16 1
    26   13   14 ar
    27   13   15 1
    28   14   40 1
    29   16   17 3
    30   18   19 1
    31   18   23 1
    32   18   20 1
    33   20   21 1
    34   20   41 1
    35   20   42 1
    36   21   22 1
    37   21   43 1
    38   21   44 1
    39   22   23 1
    40   22   24 1
    41   22   53 1
    42   23   45 1
    43   23   46 1
    44   24   25 1
    45   24   47 1
    46   24   48 1
    47   25   30 ar
    48   25   26 ar
    49   26   27 ar
    50   26   49 1
    51   27   28 ar
    52   27   50 1
    53   28   29 ar
    54   28   51 1
    55   29   30 ar
    56   29   52 1
@<TRIPOS>MOLECULE
CHEMBL146032
   65    69     0     0     0
SMALL
USER_CHARGES

@<TRIPOS>ATOM
      1 C1          0.9855   -0.7161    2.1439 C.3       1 <0>        -0.2017
      2 C2         -0.0940   -0.3819    1.1469 C.2       1 <0>         0.3928
      3 O1          0.0259    0.5848    0.4248 O.2       1 <0>        -0.4573
      4 C3         -1.2936   -1.2287    1.0496 C.ar      1 <0>        -0.1774
      5 C4         -1.4382   -2.3412    1.8847 C.ar      1 <0>        -0.0670
      6 C5         -2.5654   -3.1295    1.7879 C.ar      1 <0>        -0.1408
      7 C6         -3.5521   -2.8223    0.8673 C.ar      1 <0>        -0.0198
      8 C7         -3.4162   -1.7233    0.0370 C.ar      1 <0>        -0.1306
      9 C8         -2.2976   -0.9219    0.1257 C.ar      1 <0>        -0.0528
     10 C9         -4.7808   -3.6892    0.7681 C.3       1 <0>        -0.0301
     11 H1         -5.6172   -3.1809    1.2477 H         1 <0>         0.1119
     12 C10        -5.1149   -3.9234   -0.7130 C.3       1 <0>        -0.1145
     13 C11        -4.0220   -4.8100   -1.2843 C.3       1 <0>        -0.0432
     14 C12        -4.1726   -6.2048   -0.6215 C.3       1 <0>        -0.0856
     15 H2         -5.2079   -6.5426   -0.6676 H         1 <0>         0.0919
     16 C13        -3.2809   -7.0759   -1.5168 C.3       1 <0>        -0.1073
     17 C14        -3.6045   -6.5595   -2.9441 C.3       1 <0>        -0.1681
     18 C15        -4.1303   -5.1133   -2.7771 C.3       1 <0>         0.1081
     19 C16        -5.5887   -5.0244   -3.2309 C.3       1 <0>         0.2410
     20 C17        -5.6768   -5.3310   -4.7273 C.3       1 <0>         0.4191
     21 F1         -5.1911   -6.6207   -4.9684 F         1 <0>        -0.1507
     22 F2         -7.0103   -5.2498   -5.1423 F         1 <0>        -0.1553
     23 F3         -4.9094   -4.4030   -5.4394 F         1 <0>        -0.1524
     24 F4         -6.3561   -5.9525   -2.5188 F         1 <0>        -0.1515
     25 F5         -6.0744   -3.7348   -2.9898 F         1 <0>        -0.1502
     26 O2         -3.3220   -4.2037   -3.5264 O.3       1 <0>        -0.5227
     27 C18        -3.7189   -6.0704    0.8258 C.3       1 <0>        -0.0445
     28 H3         -2.6758   -5.7544    0.8403 H         1 <0>         0.0974
     29 C19        -4.5223   -5.0025    1.4793 C.2       1 <0>        -0.0582
     30 C20        -5.0426   -5.1540    2.6961 C.2       1 <0>        -0.1170
     31 C21        -5.8611   -4.0502    3.3263 C.3       1 <0>        -0.0833
     32 C22        -7.0801   -4.6751    4.0113 C.3       1 <0>        -0.1665
     33 C23        -6.6461   -5.8052    4.9052 C.2       1 <0>         0.3856
     34 O3         -7.2294   -5.9924    5.9541 O.2       1 <0>        -0.4675
     35 C24        -5.5792   -6.6489    4.5498 C.2       1 <0>        -0.2410
     36 C25        -4.8171   -6.3746    3.4696 C.2       1 <0>         0.0193
     37 C26        -3.7094   -7.2975    3.0242 C.3       1 <0>        -0.0945
     38 C27        -3.8349   -7.4171    1.5192 C.3       1 <0>        -0.1122
     39 C28        -2.6488   -4.2120   -0.9717 C.3       1 <0>        -0.1533
     40 H4          1.7881    0.0178    2.0701 H         1 <0>         0.0852
     41 H5          0.5683   -0.6983    3.1507 H         1 <0>         0.0935
     42 H6          1.3809   -1.7095    1.9319 H         1 <0>         0.0935
     43 H7         -0.6689   -2.5824    2.6033 H         1 <0>         0.1315
     44 H8         -2.6783   -3.9892    2.4318 H         1 <0>         0.1307
     45 H9         -4.1903   -1.4903   -0.6791 H         1 <0>         0.1312
     46 H10        -2.1950   -0.0621   -0.5198 H         1 <0>         0.1330
     47 H11        -6.0807   -4.4208   -0.8016 H         1 <0>         0.0774
     48 H12        -5.1363   -2.9716   -1.2438 H         1 <0>         0.0903
     49 H13        -2.2283   -6.9200   -1.2803 H         1 <0>         0.0790
     50 H14        -3.5471   -8.1282   -1.4183 H         1 <0>         0.0794
     51 H15        -2.7025   -6.5613   -3.5559 H         1 <0>         0.0947
     52 H16        -4.3699   -7.1850   -3.4035 H         1 <0>         0.0956
     53 H17        -3.3506   -4.3477   -4.4821 H         1 <0>         0.3795
     54 H18        -5.2571   -3.5226    4.0644 H         1 <0>         0.0840
     55 H19        -6.1916   -3.3540    2.5553 H         1 <0>         0.0923
     56 H20        -7.5880   -3.9171    4.6075 H         1 <0>         0.0959
     57 H21        -7.7650   -5.0559    3.2537 H         1 <0>         0.1000
     58 H22        -5.3673   -7.5240    5.1462 H         1 <0>         0.1361
     59 H23        -2.7434   -6.8777    3.3049 H         1 <0>         0.0915
     60 H24        -3.8359   -8.2765    3.4862 H         1 <0>         0.0871
     61 H25        -4.7830   -7.8784    1.2429 H         1 <0>         0.0737
     62 H26        -3.0189   -8.0591    1.1873 H         1 <0>         0.0757
     63 H27        -2.4482   -4.3012    0.0960 H         1 <0>         0.0852
     64 H28        -1.8828   -4.7488   -1.5314 H         1 <0>         0.0568
     65 H29        -2.6371   -3.1601   -1.2569 H         1 <0>         0.0769
@<TRIPOS>BOND
     1    1    2 1
     2    1   40 1
     3    1   41 1
     4    1   42 1
     5    2    3 2
     6    2    4 1
     7    4    9 ar
     8    4    5 ar
     9    5    6 ar
    10    5   43 1
    11    6    7 ar
    12    6   44 1
    13    7    8 ar
    14    7   10 1
    15    8    9 ar
    16    8   45 1
    17    9   46 1
    18   10   11 1
    19   10   29 1
    20   10   12 1
    21   12   13 1
    22   12   47 1
    23   12   48 1
    24   13   18 1
    25   13   14 1
    26   13   39 1
    27   14   15 1
    28   14   16 1
    29   14   27 1
    30   16   17 1
    31   16   49 1
    32   16   50 1
    33   17   18 1
    34   17   51 1
    35   17   52 1
    36   18   19 1
    37   18   26 1
    38   19   20 1
    39   19   24 1
    40   19   25 1
    41   20   21 1
    42   20   22 1
    43   20   23 1
    44   26   53 1
    45   27   28 1
    46   27   38 1
    47   27   29 1
    48   29   30 2
    49   30   36 1
    50   30   31 1
    51   31   32 1
    52   31   54 1
    53   31   55 1
    54   32   33 1
    55   32   56 1
    56   32   57 1
    57   33   34 2
    58   33   35 1
    59   35   36 2
    60   35   58 1
    61   36   37 1
    62   37   38 1
    63   37   59 1
    64   37   60 1
    65   38   61 1
    66   38   62 1
    67   39   63 1
    68   39   64 1
    69   39   65 1
@<TRIPOS>MOLECULE
CHEMBL570708
   36    39     0     0     0
SMALL
USER_CHARGES

@<TRIPOS>ATOM
      1 C1         -0.0184    1.5028    0.0103 C.3       1 <0>        -0.1316
      2 C2          0.0021   -0.0041    0.0020 C.ar      1 <0>         0.0871
      3 C3          0.0063   -0.7215   -1.2052 C.ar      1 <0>        -0.0717
      4 C4          0.0255   -2.1224   -1.1415 C.ar      1 <0>         0.2528
      5 N1          0.0388   -2.7643   -0.0036 N.ar      1 <0>        -0.4448
      6 C5          0.0354   -2.1326    1.1934 C.ar      1 <0>         0.2164
      7 C6          0.0229   -0.7171    1.1727 C.ar      1 <0>        -0.2096
      8 S1          0.0344   -0.2771    2.8936 S.3       1 <0>         0.1618
      9 C7          0.0711   -1.9132    3.5648 C.2       1 <0>         0.1343
     10 C8          0.0461   -2.7348    2.4724 C.2       1 <0>        -0.1782
     11 C9          0.0327   -4.2460    2.6875 C.3       1 <0>         0.0196
     12 C10         0.7491   -4.5590    4.0002 C.3       1 <0>        -0.1375
     13 C11         0.2979   -3.6494    5.1090 C.2       1 <0>         0.5320
     14 O1          0.1376   -4.0974    6.2246 O.2       1 <0>        -0.4900
     15 N2          0.0931   -2.3350    4.8757 N.am      1 <0>        -0.6192
     16 C12         0.7466   -4.9254    1.5474 C.ar      1 <0>        -0.0478
     17 C13         2.0763   -4.6423    1.2975 C.ar      1 <0>        -0.0955
     18 C14         2.7312   -5.2654    0.2518 C.ar      1 <0>        -0.1105
     19 C15         2.0568   -6.1721   -0.5448 C.ar      1 <0>        -0.1026
     20 C16         0.7274   -6.4560   -0.2960 C.ar      1 <0>        -0.1030
     21 C17         0.0728   -5.8368    0.7542 C.ar      1 <0>        -0.0092
     22 Cl1        -1.5953   -6.1977    1.0715 Cl        1 <0>        -0.0694
     23 Cl2         0.0312   -3.0317   -2.6203 Cl        1 <0>        -0.0042
     24 C18        -0.0092   -0.0419   -2.4656 C.1       1 <0>         0.2547
     25 N3         -0.0214    0.4972   -3.4655 N.1       1 <0>        -0.3815
     26 H1          1.0042    1.8801    0.0026 H         1 <0>         0.0991
     27 H2         -0.5455    1.8639   -0.8728 H         1 <0>         0.0859
     28 H3         -0.5286    1.8543    0.9071 H         1 <0>         0.0870
     29 H4         -0.9972   -4.5989    2.7396 H         1 <0>         0.1091
     30 H5          0.5420   -5.5917    4.2809 H         1 <0>         0.1203
     31 H6          1.8229   -4.4393    3.8567 H         1 <0>         0.1132
     32 H7         -0.0511   -1.7133    5.6061 H         1 <0>         0.4267
     33 H8          2.6036   -3.9339    1.9192 H         1 <0>         0.1220
     34 H9          3.7701   -5.0437    0.0568 H         1 <0>         0.1249
     35 H10         2.5689   -6.6584   -1.3619 H         1 <0>         0.1286
     36 H11         0.2006   -7.1640   -0.9185 H         1 <0>         0.1309
@<TRIPOS>BOND
     1    1    2 1
     2    1   26 1
     3    1   27 1
     4    1   28 1
     5    2    7 ar
     6    2    3 ar
     7    3    4 ar
     8    3   24 1
     9    4    5 ar
    10    4   23 1
    11    5    6 ar
    12    6   10 1
    13    6    7 ar
    14    7    8 1
    15    8    9 1
    16    9   15 1
    17    9   10 2
    18   10   11 1
    19   11   12 1
    20   11   16 1
    21   11   29 1
    22   12   13 1
    23   12   30 1
    24   12   31 1
    25   13   14 2
    26   13   15 am
    27   15   32 1
    28   16   21 ar
    29   16   17 ar
    30   17   18 ar
    31   17   33 1
    32   18   19 ar
    33   18   34 1
    34   19   20 ar
    35   19   35 1
    36   20   21 ar
    37   20   36 1
    38   21   22 1
    39   24   25 3
@<TRIPOS>MOLECULE
CHEMBL570708__1
   36    39     0     0     0
SMALL
USER_CHARGES

@<TRIPOS>ATOM
      1 C1         -0.0184    1.5028    0.0103 C.3       1 <0>        -0.1317
      2 C2          0.0021   -0.0041    0.0020 C.ar      1 <0>         0.0882
      3 C3          0.0063   -0.7215   -1.2052 C.ar      1 <0>        -0.0712
      4 C4          0.0255   -2.1224   -1.1415 C.ar      1 <0>         0.2542
      5 N1          0.0388   -2.7643   -0.0036 N.ar      1 <0>        -0.4520
      6 C5          0.0354   -2.1326    1.1934 C.ar      1 <0>         0.2160
      7 C6          0.0229   -0.7171    1.1727 C.ar      1 <0>        -0.2097
      8 S1          0.0344   -0.2771    2.8936 S.3       1 <0>         0.1643
      9 C7          0.0711   -1.9132    3.5648 C.2       1 <0>         0.1340
     10 C8          0.0461   -2.7348    2.4724 C.2       1 <0>        -0.1745
     11 C9          0.0327   -4.2460    2.6875 C.3       1 <0>         0.0188
     12 C10         0.7491   -4.5590    4.0002 C.3       1 <0>        -0.1388
     13 C11         0.2979   -3.6494    5.1090 C.2       1 <0>         0.5307
     14 O1          0.1376   -4.0974    6.2246 O.2       1 <0>        -0.4888
     15 N2          0.0931   -2.3350    4.8757 N.am      1 <0>        -0.6224
     16 C12        -1.3913   -4.7340    2.7596 C.ar      1 <0>        -0.0734
     17 C13        -2.2401   -4.2475    3.7362 C.ar      1 <0>        -0.1049
     18 C14        -3.5462   -4.6949    3.8024 C.ar      1 <0>        -0.1109
     19 C15        -4.0045   -5.6292    2.8921 C.ar      1 <0>        -0.1035
     20 C16        -3.1569   -6.1163    1.9153 C.ar      1 <0>        -0.1081
     21 C17        -1.8509   -5.6645    1.8450 C.ar      1 <0>        -0.0195
     22 Cl1        -0.7873   -6.2709    0.6142 Cl        1 <0>        -0.0513
     23 Cl2         0.0312   -3.0317   -2.6203 Cl        1 <0>        -0.0032
     24 C18        -0.0092   -0.0419   -2.4656 C.1       1 <0>         0.2547
     25 N3         -0.0214    0.4972   -3.4655 N.1       1 <0>        -0.3803
     26 H1          1.0042    1.8801    0.0026 H         1 <0>         0.0998
     27 H2         -0.5455    1.8639   -0.8728 H         1 <0>         0.0863
     28 H3         -0.5286    1.8543    0.9071 H         1 <0>         0.0871
     29 H4          0.5490   -4.7374    1.8628 H         1 <0>         0.1260
     30 H5          0.5420   -5.5917    4.2809 H         1 <0>         0.1201
     31 H6          1.8229   -4.4393    3.8567 H         1 <0>         0.1179
     32 H7         -0.0511   -1.7133    5.6061 H         1 <0>         0.4267
     33 H8         -1.8826   -3.5180    4.4477 H         1 <0>         0.1200
     34 H9         -4.2089   -4.3148    4.5658 H         1 <0>         0.1293
     35 H10        -5.0251   -5.9787    2.9446 H         1 <0>         0.1338
     36 H11        -3.5149   -6.8463    1.2045 H         1 <0>         0.1362
@<TRIPOS>BOND
     1    1    2 1
     2    1   26 1
     3    1   27 1
     4    1   28 1
     5    2    7 ar
     6    2    3 ar
     7    3    4 ar
     8    3   24 1
     9    4    5 ar
    10    4   23 1
    11    5    6 ar
    12    6   10 1
    13    6    7 ar
    14    7    8 1
    15    8    9 1
    16    9   15 1
    17    9   10 2
    18   10   11 1
    19   11   12 1
    20   11   16 1
    21   11   29 1
    22   12   13 1
    23   12   30 1
    24   12   31 1
    25   13   14 2
    26   13   15 am
    27   15   32 1
    28   16   21 ar
    29   16   17 ar
    30   17   18 ar
    31   17   33 1
    32   18   19 ar
    33   18   34 1
    34   19   20 ar
    35   19   35 1
    36   20   21 ar
    37   20   36 1
    38   21   22 1
    39   24   25 3
@<TRIPOS>MOLECULE
CHEMBL134277
   48    52     0     0     0
SMALL
USER_CHARGES

@<TRIPOS>ATOM
      1 C1         -0.5108    1.6667    0.4224 C.3       1 <0>        -0.1176
      2 C2         -0.4603    0.1665    0.2633 C.2       1 <0>        -0.0607
      3 C3         -0.7015   -0.3183   -0.9535 C.2       1 <0>        -0.1658
      4 C4         -0.7602   -1.7876   -1.2497 C.3       1 <0>         0.2138
      5 N1         -0.1057   -2.5622   -0.1970 N.pl3     1 <0>        -0.7343
      6 C5         -0.0942   -2.1158    1.1193 C.ar      1 <0>         0.2260
      7 C6         -0.1632   -0.7285    1.3886 C.ar      1 <0>        -0.0655
      8 C7          0.1163   -0.3145    2.6823 C.ar      1 <0>        -0.0179
      9 C8         -0.0351   -1.2489    3.7505 C.ar      1 <0>        -0.0965
     10 C9         -0.0649   -2.6026    3.4756 C.ar      1 <0>        -0.0512
     11 C10        -0.0345   -3.0281    2.1602 C.ar      1 <0>        -0.1810
     12 C11        -0.1611   -0.6992    5.1173 C.ar      1 <0>        -0.0607
     13 C12        -0.3160   -1.5418    6.2148 C.ar      1 <0>        -0.1182
     14 C13        -0.4397   -1.0069    7.4838 C.ar      1 <0>         0.0807
     15 C14        -0.4058    0.3664    7.6677 C.ar      1 <0>        -0.1217
     16 C15        -0.2463    1.2108    6.5859 C.ar      1 <0>        -0.1058
     17 C16        -0.1218    0.6890    5.3089 C.ar      1 <0>         0.1051
     18 O1          0.0483    1.5263    4.2477 O.3       1 <0>        -0.2407
     19 C17         0.6344    0.9820    3.1369 C.2       1 <0>         0.0859
     20 C18         1.6990    1.5857    2.5627 C.2       1 <0>        -0.0803
     21 C19         2.0591    2.9628    2.9436 C.2       1 <0>        -0.0997
     22 C20         3.2587    3.5842    2.4487 C.2       1 <0>        -0.1425
     23 C21         3.5294    4.8485    2.8364 C.2       1 <0>        -0.1727
     24 S1          2.1510    5.2415    3.8967 S.3       1 <0>         0.0261
     25 C22         1.2612    3.7008    3.7774 C.2       1 <0>        -0.1428
     26 F1         -0.5945   -1.8253    8.5478 F         1 <0>        -0.1363
     27 C23        -0.0594   -2.0595   -2.5868 C.3       1 <0>        -0.1549
     28 C24        -2.2254   -2.2238   -1.3644 C.3       1 <0>        -0.1603
     29 H1          0.4794    2.0848    0.2414 H         1 <0>         0.0723
     30 H2         -1.2182    2.0845   -0.2940 H         1 <0>         0.0672
     31 H3         -0.8301    1.9141    1.4348 H         1 <0>         0.0685
     32 H4         -0.8652    0.3876   -1.7613 H         1 <0>         0.1278
     33 H5          0.3317   -3.4087   -0.4209 H         1 <0>         0.4050
     34 H6         -0.1127   -3.3249    4.2768 H         1 <0>         0.1329
     35 H7          0.0365   -4.0839    1.9397 H         1 <0>         0.1299
     36 H8         -0.3360   -2.6132    6.0780 H         1 <0>         0.1424
     37 H9         -0.5025    0.7782    8.6613 H         1 <0>         0.1463
     38 H10        -0.2152    2.2800    6.7359 H         1 <0>         0.1453
     39 H11         2.2855    1.0587    1.8247 H         1 <0>         0.1432
     40 H12         3.9250    3.0531    1.7851 H         1 <0>         0.1370
     41 H13         4.3726    5.4686    2.5703 H         1 <0>         0.1862
     42 H14         0.3291    3.4201    4.2451 H         1 <0>         0.1987
     43 H15         0.9807   -1.7398   -2.5235 H         1 <0>         0.0633
     44 H16        -0.0989   -3.1262   -2.8074 H         1 <0>         0.0634
     45 H17        -0.5621   -1.5056   -3.3797 H         1 <0>         0.0742
     46 H18        -2.7074   -1.6699   -2.1699 H         1 <0>         0.0674
     47 H19        -2.2708   -3.2914   -1.5796 H         1 <0>         0.0615
     48 H20        -2.7396   -2.0204   -0.4251 H         1 <0>         0.0571
@<TRIPOS>BOND
     1    1    2 1
     2    1   29 1
     3    1   30 1
     4    1   31 1
     5    2    7 1
     6    2    3 2
     7    3    4 1
     8    3   32 1
     9    4    5 1
    10    4   27 1
    11    4   28 1
    12    5    6 1
    13    5   33 1
    14    6   11 ar
    15    6    7 ar
    16    7    8 ar
    17    8   19 1
    18    8    9 ar
    19    9   10 ar
    20    9   12 1
    21   10   11 ar
    22   10   34 1
    23   11   35 1
    24   12   17 ar
    25   12   13 ar
    26   13   14 ar
    27   13   36 1
    28   14   15 ar
    29   14   26 1
    30   15   16 ar
    31   15   37 1
    32   16   17 ar
    33   16   38 1
    34   17   18 1
    35   18   19 1
    36   19   20 2
    37   20   21 1
    38   20   39 1
    39   21   25 2
    40   21   22 1
    41   22   23 2
    42   22   40 1
    43   23   24 1
    44   23   41 1
    45   24   25 1
    46   25   42 1
    47   27   43 1
    48   27   44 1
    49   27   45 1
    50   28   46 1
    51   28   47 1
    52   28   48 1
@<TRIPOS>MOLECULE
CHEMBL93894
   41    44     0     0     0
SMALL
USER_CHARGES

@<TRIPOS>ATOM
      1 C1         -0.0187    1.5258    0.0104 C.3       1 <0>        -0.1460
      2 C2          0.0021   -0.0041    0.0020 C.3       1 <0>        -0.0426
      3 C3         -1.4337   -0.5279   -0.0127 C.3       1 <0>        -0.1212
      4 C4         -1.4084   -2.0483    0.1919 C.3       1 <0>         0.1739
      5 N1         -0.8466   -2.3124    1.5235 N.pl3     1 <0>        -0.7393
      6 C5          0.2944   -1.6121    1.9271 C.ar      1 <0>         0.2335
      7 C6          0.7315   -0.4981    1.2240 C.ar      1 <0>        -0.1479
      8 C7          1.8599    0.1790    1.6447 C.ar      1 <0>        -0.0473
      9 C8          2.5628   -0.2527    2.7706 C.ar      1 <0>        -0.1164
     10 C9          2.1167   -1.3723    3.4689 C.ar      1 <0>        -0.0450
     11 C10         0.9918   -2.0464    3.0507 C.ar      1 <0>        -0.1774
     12 C11         3.0630   -1.5958    4.6230 C.3       1 <0>        -0.0425
     13 C12         4.0997   -0.5032    4.5296 C.ar      1 <0>        -0.1004
     14 C13         3.7833    0.2818    3.4238 C.ar      1 <0>        -0.0398
     15 C14         4.5915    1.3748    3.1061 C.ar      1 <0>        -0.1057
     16 C15         5.6917    1.6674    3.8853 C.ar      1 <0>        -0.1176
     17 C16         5.9984    0.8813    4.9812 C.ar      1 <0>        -0.1215
     18 C17         5.2012   -0.2035    5.3023 C.ar      1 <0>        -0.0995
     19 C18        -0.5320   -2.7009   -0.8791 C.3       1 <0>        -0.1620
     20 C19        -2.8308   -2.6060    0.1095 C.3       1 <0>        -0.1538
     21 H1          1.0039    1.9031    0.0027 H         1 <0>         0.0590
     22 H2         -0.5459    1.8868   -0.8726 H         1 <0>         0.0579
     23 H3         -0.5289    1.8773    0.9072 H         1 <0>         0.0570
     24 H4          0.5205   -0.3518   -0.8915 H         1 <0>         0.0798
     25 H5         -2.0013   -0.0605    0.7919 H         1 <0>         0.0709
     26 H6         -1.8972   -0.2961   -0.9717 H         1 <0>         0.0769
     27 H7         -1.2607   -2.9618    2.1132 H         1 <0>         0.4003
     28 H8          2.2002    1.0468    1.0993 H         1 <0>         0.1221
     29 H9          0.6496   -2.9140    3.5954 H         1 <0>         0.1218
     30 H10         2.5255   -1.5232    5.5685 H         1 <0>         0.0983
     31 H11         3.5383   -2.5727    4.5349 H         1 <0>         0.0982
     32 H12         4.3558    1.9907    2.2508 H         1 <0>         0.1199
     33 H13         6.3162    2.5133    3.6384 H         1 <0>         0.1242
     34 H14         6.8612    1.1146    5.5875 H         1 <0>         0.1252
     35 H15         5.4423   -0.8157    6.1587 H         1 <0>         0.1229
     36 H16         0.4830   -2.3104   -0.8055 H         1 <0>         0.0626
     37 H17        -0.5178   -3.7804   -0.7288 H         1 <0>         0.0579
     38 H18        -0.9368   -2.4767   -1.8660 H         1 <0>         0.0652
     39 H19        -3.2531   -2.3812   -0.8698 H         1 <0>         0.0735
     40 H20        -2.8066   -3.6859    0.2555 H         1 <0>         0.0622
     41 H21        -3.4459   -2.1483    0.8843 H         1 <0>         0.0628
@<TRIPOS>BOND
     1    1    2 1
     2    1   21 1
     3    1   22 1
     4    1   23 1
     5    2    7 1
     6    2    3 1
     7    2   24 1
     8    3    4 1
     9    3   25 1
    10    3   26 1
    11    4    5 1
    12    4   19 1
    13    4   20 1
    14    5    6 1
    15    5   27 1
    16    6   11 ar
    17    6    7 ar
    18    7    8 ar
    19    8    9 ar
    20    8   28 1
    21    9   14 1
    22    9   10 ar
    23   10   11 ar
    24   10   12 1
    25   11   29 1
    26   12   13 1
    27   12   30 1
    28   12   31 1
    29   13   18 ar
    30   13   14 ar
    31   14   15 ar
    32   15   16 ar
    33   15   32 1
    34   16   17 ar
    35   16   33 1
    36   17   18 ar
    37   17   34 1
    38   18   35 1
    39   19   36 1
    40   19   37 1
    41   19   38 1
    42   20   39 1
    43   20   40 1
    44   20   41 1
@<TRIPOS>MOLECULE
CHEMBL93894__1
   41    44     0     0     0
SMALL
USER_CHARGES

@<TRIPOS>ATOM
      1 C1         -0.0187    1.5258    0.0104 C.3       1 <0>        -0.1460
      2 C2          0.0021   -0.0041    0.0020 C.3       1 <0>        -0.0426
      3 C3          0.6958   -0.4921   -1.2694 C.3       1 <0>        -0.1212
      4 C4          0.9006   -2.0095   -1.1707 C.3       1 <0>         0.1739
      5 N1          1.8012   -2.2679   -0.0391 N.pl3     1 <0>        -0.7393
      6 C5          1.5858   -1.5904    1.1650 C.ar      1 <0>         0.2335
      7 C6          0.7315   -0.4981    1.2240 C.ar      1 <0>        -0.1479
      8 C7          0.5377    0.1568    2.4250 C.ar      1 <0>        -0.0473
      9 C8          1.1947   -0.2754    3.5781 C.ar      1 <0>        -0.1163
     10 C9          2.0492   -1.3732    3.5089 C.ar      1 <0>        -0.0450
     11 C10         2.2431   -2.0254    2.3123 C.ar      1 <0>        -0.1774
     12 C11         2.6078   -1.6031    4.8918 C.3       1 <0>        -0.0425
     13 C12         1.9980   -0.5382    5.7700 C.ar      1 <0>        -0.1004
     14 C13         1.1634    0.2381    4.9699 C.ar      1 <0>        -0.0398
     15 C14         0.4676    1.3057    5.5398 C.ar      1 <0>        -0.1058
     16 C15         0.6106    1.5820    6.8839 C.ar      1 <0>        -0.1176
     17 C16         1.4415    0.8051    7.6705 C.ar      1 <0>        -0.1215
     18 C17         2.1347   -0.2547    7.1120 C.ar      1 <0>        -0.0995
     19 C18         1.5296   -2.5327   -2.4636 C.3       1 <0>        -0.1538
     20 C19        -0.4439   -2.6994   -0.9311 C.3       1 <0>        -0.1620
     21 H1          1.0039    1.9031    0.0027 H         1 <0>         0.0570
     22 H2         -0.5459    1.8868   -0.8726 H         1 <0>         0.0579
     23 H3         -0.5289    1.8773    0.9072 H         1 <0>         0.0590
     24 H4         -1.0217   -0.3777    0.0186 H         1 <0>         0.0797
     25 H5          0.0747   -0.2629   -2.1353 H         1 <0>         0.0769
     26 H6          1.6626    0.0011   -1.3703 H         1 <0>         0.0709
     27 H7          2.5331   -2.8985   -0.1257 H         1 <0>         0.4003
     28 H8         -0.1254    1.0079    2.4717 H         1 <0>         0.1221
     29 H9          2.9065   -2.8763    2.2635 H         1 <0>         0.1218
     30 H10         2.3254   -2.5928    5.2508 H         1 <0>         0.0982
     31 H11         3.6931   -1.5033    4.8795 H         1 <0>         0.0983
     32 H12        -0.1820    1.9151    4.9289 H         1 <0>         0.1199
     33 H13         0.0718    2.4085    7.3234 H         1 <0>         0.1242
     34 H14         1.5499    1.0260    8.7221 H         1 <0>         0.1252
     35 H15         2.7831   -0.8600    7.7282 H         1 <0>         0.1229
     36 H16         2.4934   -2.0485   -2.6207 H         1 <0>         0.0628
     37 H17         1.6726   -3.6107   -2.3878 H         1 <0>         0.0622
     38 H18         0.8708   -2.3118   -3.3035 H         1 <0>         0.0735
     39 H19        -1.1177   -2.4797   -1.7593 H         1 <0>         0.0652
     40 H20        -0.2923   -3.7766   -0.8619 H         1 <0>         0.0579
     41 H21        -0.8795   -2.3333   -0.0014 H         1 <0>         0.0626
@<TRIPOS>BOND
     1    1    2 1
     2    1   21 1
     3    1   22 1
     4    1   23 1
     5    2    7 1
     6    2    3 1
     7    2   24 1
     8    3    4 1
     9    3   25 1
    10    3   26 1
    11    4    5 1
    12    4   19 1
    13    4   20 1
    14    5    6 1
    15    5   27 1
    16    6   11 ar
    17    6    7 ar
    18    7    8 ar
    19    8    9 ar
    20    8   28 1
    21    9   14 1
    22    9   10 ar
    23   10   11 ar
    24   10   12 1
    25   11   29 1
    26   12   13 1
    27   12   30 1
    28   12   31 1
    29   13   18 ar
    30   13   14 ar
    31   14   15 ar
    32   15   16 ar
    33   15   32 1
    34   16   17 ar
    35   16   33 1
    36   17   18 ar
    37   17   34 1
    38   18   35 1
    39   19   36 1
    40   19   37 1
    41   19   38 1
    42   20   39 1
    43   20   40 1
    44   20   41 1
@<TRIPOS>MOLECULE
CHEMBL70114
   36    38     0     0     0
SMALL
USER_CHARGES

@<TRIPOS>ATOM
      1 C1         -0.0187    1.5258    0.0104 C.3       1 <0>        -0.1719
      2 C2          0.0021   -0.0041    0.0020 C.3       1 <0>         0.1661
      3 C3          0.7212   -0.4928   -1.2301 C.ar      1 <0>        -0.1530
      4 C4          0.0404   -0.7166   -2.4051 C.ar      1 <0>        -0.0632
      5 C5          0.7311   -1.1665   -3.5298 C.ar      1 <0>        -0.0175
      6 C6          2.1054   -1.3876   -3.4606 C.ar      1 <0>        -0.0789
      7 C7          2.7828   -1.1625   -2.2796 C.ar      1 <0>        -0.1387
      8 C8          2.0932   -0.7158   -1.1625 C.ar      1 <0>         0.1543
      9 N1          2.7552   -0.4827    0.0497 N.am      1 <0>        -0.6689
     10 C9          2.0325   -0.3550    1.1818 C.2       1 <0>         0.6619
     11 O1          2.5976   -0.1239    2.2325 O.2       1 <0>        -0.5044
     12 O2          0.6935   -0.4804    1.1602 O.3       1 <0>        -0.3323
     13 C10         0.0028   -1.4103   -4.8002 C.2       1 <0>        -0.1331
     14 C11        -1.3771   -1.2258   -5.0187 C.2       1 <0>        -0.0986
     15 C12        -1.6288   -1.5635   -6.3187 C.2       1 <0>         0.0583
     16 N2         -0.4405   -1.9480   -6.8961 N.pl3     1 <0>        -0.4226
     17 C13         0.5481   -1.8486   -5.9724 C.2       1 <0>         0.0518
     18 C14        -0.2698   -2.3875   -8.2832 C.3       1 <0>         0.0635
     19 C15        -2.9054   -1.5248   -6.9662 C.1       1 <0>         0.2746
     20 N3         -3.9181   -1.4941   -7.4799 N.1       1 <0>        -0.4003
     21 C16        -1.4324   -0.5362    0.0065 C.3       1 <0>        -0.1426
     22 H1          1.0039    1.9031    0.0027 H         1 <0>         0.0605
     23 H2         -0.5459    1.8868   -0.8726 H         1 <0>         0.0846
     24 H3         -0.5289    1.8773    0.9072 H         1 <0>         0.0782
     25 H4         -1.0246   -0.5447   -2.4557 H         1 <0>         0.1373
     26 H5          2.6405   -1.7357   -4.3318 H         1 <0>         0.1322
     27 H6          3.8477   -1.3341   -2.2254 H         1 <0>         0.1351
     28 H7          3.7224   -0.4141    0.0749 H         1 <0>         0.4295
     29 H8         -2.1005   -0.8822   -4.2941 H         1 <0>         0.1528
     30 H9          1.5904   -2.0792   -6.1362 H         1 <0>         0.1796
     31 H10        -0.0519   -1.5252   -8.9134 H         1 <0>         0.0841
     32 H11         0.5555   -3.0972   -8.3405 H         1 <0>         0.0967
     33 H12        -1.1860   -2.8670   -8.6277 H         1 <0>         0.0860
     34 H13        -1.9563   -0.1760   -0.8789 H         1 <0>         0.0874
     35 H14        -1.4157   -1.6260    0.0005 H         1 <0>         0.0740
     36 H15        -1.9472   -0.1856    0.9010 H         1 <0>         0.0774
@<TRIPOS>BOND
     1    1    2 1
     2    1   22 1
     3    1   23 1
     4    1   24 1
     5    2   12 1
     6    2    3 1
     7    2   21 1
     8    3    8 ar
     9    3    4 ar
    10    4    5 ar
    11    4   25 1
    12    5    6 ar
    13    5   13 1
    14    6    7 ar
    15    6   26 1
    16    7    8 ar
    17    7   27 1
    18    8    9 1
    19    9   10 am
    20    9   28 1
    21   10   11 2
    22   10   12 1
    23   13   17 2
    24   13   14 1
    25   14   15 2
    26   14   29 1
    27   15   16 1
    28   15   19 1
    29   16   17 1
    30   16   18 1
    31   17   30 1
    32   18   31 1
    33   18   32 1
    34   18   33 1
    35   19   20 3
    36   21   34 1
    37   21   35 1
    38   21   36 1
@<TRIPOS>MOLECULE
CHEMBL196929
   69    73     0     0     0
SMALL
USER_CHARGES

@<TRIPOS>ATOM
      1 C1         -2.9738   -1.0392   -0.7299 C.3       1 <0>        -0.1825
      2 C2         -1.7609   -0.3559   -1.3647 C.3       1 <0>        -0.0224
      3 C3         -2.0687    1.1262   -1.5867 C.3       1 <0>        -0.1266
      4 C4         -0.5539   -0.4924   -0.4344 C.3       1 <0>        -0.0985
      5 C5         -0.7713    0.3672    0.8126 C.3       1 <0>         0.1351
      6 C6          0.4754    0.3068    1.6974 C.3       1 <0>        -0.0986
      7 C7          1.6868    0.6855    0.8849 C.ar      1 <0>        -0.0751
      8 C8          2.4043   -0.2929    0.2206 C.ar      1 <0>        -0.1117
      9 C9          3.5145    0.0483   -0.5250 C.ar      1 <0>        -0.1086
     10 C10         3.9122    1.3812   -0.6077 C.ar      1 <0>        -0.0422
     11 C11         3.1858    2.3626    0.0635 C.ar      1 <0>        -0.1083
     12 C12         2.0738    2.0108    0.8016 C.ar      1 <0>        -0.0973
     13 C13         5.1054    1.7540   -1.4074 C.ar      1 <0>        -0.0476
     14 C14         5.8287    0.7732   -2.0829 C.ar      1 <0>        -0.1107
     15 C15         6.9374    1.1257   -2.8256 C.ar      1 <0>        -0.1173
     16 C16         7.3310    2.4496   -2.8996 C.ar      1 <0>        -0.1182
     17 C17         6.6169    3.4272   -2.2307 C.ar      1 <0>        -0.1175
     18 C18         5.5030    3.0868   -1.4901 C.ar      1 <0>        -0.1108
     19 C19        -1.9584   -0.1538    1.5810 C.2       1 <0>         0.5038
     20 O1         -1.8532   -1.1590    2.2513 O.2       1 <0>        -0.4978
     21 N1         -3.1370    0.4975    1.5235 N.am      1 <0>        -0.6674
     22 C20        -4.2047    0.0778    2.3156 C.ar      1 <0>         0.1904
     23 C21        -3.9633   -0.4904    3.5630 C.ar      1 <0>        -0.1328
     24 C22        -5.0132   -0.9068    4.3501 C.ar      1 <0>        -0.0079
     25 C23        -6.3257   -0.7582    3.8943 C.ar      1 <0>        -0.2141
     26 C24        -6.5611   -0.1858    2.6387 C.ar      1 <0>        -0.0781
     27 C25        -5.5116    0.2330    1.8601 C.ar      1 <0>        -0.1289
     28 C26        -8.0578   -0.1728    2.4576 C.3       1 <0>         0.0911
     29 O2         -8.6200   -0.7489    3.6397 O.3       1 <0>        -0.3144
     30 C27        -7.6324   -1.0939    4.4829 C.2       1 <0>         0.5229
     31 O3         -7.7943   -1.6074    5.5722 O.2       1 <0>        -0.4485
     32 O4         -1.0133    1.7203    0.4221 O.3       1 <0>        -0.5282
     33 C28        -1.4519   -1.0085   -2.6874 C.ar      1 <0>        -0.0658
     34 C29        -0.2238   -1.6092   -2.8916 C.ar      1 <0>        -0.1231
     35 C30         0.0597   -2.2078   -4.1050 C.ar      1 <0>        -0.1158
     36 C31        -0.8852   -2.2060   -5.1140 C.ar      1 <0>        -0.1253
     37 C32        -2.1136   -1.6061   -4.9095 C.ar      1 <0>        -0.1172
     38 C33        -2.3987   -1.0113   -3.6947 C.ar      1 <0>        -0.1161
     39 H1         -3.7012   -1.2813   -1.5048 H         1 <0>         0.0603
     40 H2         -2.6556   -1.9548   -0.2315 H         1 <0>         0.0561
     41 H3         -3.4289   -0.3682   -0.0014 H         1 <0>         0.0831
     42 H4         -2.7907    1.4628   -0.8427 H         1 <0>         0.0512
     43 H5         -1.1508    1.7063   -1.4908 H         1 <0>         0.0853
     44 H6         -2.4838    1.2655   -2.5849 H         1 <0>         0.0484
     45 H7         -0.4376   -1.5356   -0.1408 H         1 <0>         0.0857
     46 H8          0.3445   -0.1587   -0.9535 H         1 <0>         0.0996
     47 H9          0.3643    1.0019    2.5296 H         1 <0>         0.0825
     48 H10         0.5985   -0.7052    2.0831 H         1 <0>         0.0982
     49 H11         2.0954   -1.3257    0.2857 H         1 <0>         0.1239
     50 H12         4.0743   -0.7164   -1.0430 H         1 <0>         0.1255
     51 H13         3.4899    3.3971    0.0030 H         1 <0>         0.1249
     52 H14         1.5072    2.7713    1.3183 H         1 <0>         0.1229
     53 H15         5.5226   -0.2609   -2.0252 H         1 <0>         0.1248
     54 H16         7.4988    0.3663   -3.3496 H         1 <0>         0.1245
     55 H17         8.1994    2.7209   -3.4817 H         1 <0>         0.1232
     56 H18         6.9288    4.4594   -2.2916 H         1 <0>         0.1245
     57 H19         4.9436    3.8515   -0.9718 H         1 <0>         0.1248
     58 H20        -3.2423    1.2581    0.9309 H         1 <0>         0.4209
     59 H21        -2.9486   -0.6054    3.9145 H         1 <0>         0.1497
     60 H22        -4.8228   -1.3478    5.3174 H         1 <0>         0.1421
     61 H23        -5.6986    0.6783    0.8941 H         1 <0>         0.1404
     62 H24        -8.4102    0.8517    2.3380 H         1 <0>         0.1190
     63 H25        -8.3333   -0.7665    1.5860 H         1 <0>         0.1185
     64 H26        -1.1601    2.3234    1.1636 H         1 <0>         0.3679
     65 H27         0.5144   -1.6106   -2.1033 H         1 <0>         0.1231
     66 H28         1.0195   -2.6765   -4.2647 H         1 <0>         0.1206
     67 H29        -0.6634   -2.6731   -6.0622 H         1 <0>         0.1201
     68 H30        -2.8517   -1.6044   -5.6980 H         1 <0>         0.1207
     69 H31        -3.3598   -0.5458   -3.5336 H         1 <0>         0.1198
@<TRIPOS>BOND
     1    1    2 1
     2    1   39 1
     3    1   40 1
     4    1   41 1
     5    2    3 1
     6    2    4 1
     7    2   33 1
     8    3   42 1
     9    3   43 1
    10    3   44 1
    11    4    5 1
    12    4   45 1
    13    4   46 1
    14    5    6 1
    15    5   19 1
    16    5   32 1
    17    6    7 1
    18    6   47 1
    19    6   48 1
    20    7   12 ar
    21    7    8 ar
    22    8    9 ar
    23    8   49 1
    24    9   10 ar
    25    9   50 1
    26   10   11 ar
    27   10   13 1
    28   11   12 ar
    29   11   51 1
    30   12   52 1
    31   13   18 ar
    32   13   14 ar
    33   14   15 ar
    34   14   53 1
    35   15   16 ar
    36   15   54 1
    37   16   17 ar
    38   16   55 1
    39   17   18 ar
    40   17   56 1
    41   18   57 1
    42   19   20 2
    43   19   21 am
    44   21   22 1
    45   21   58 1
    46   22   27 ar
    47   22   23 ar
    48   23   24 ar
    49   23   59 1
    50   24   25 ar
    51   24   60 1
    52   25   30 1
    53   25   26 ar
    54   26   27 ar
    55   26   28 1
    56   27   61 1
    57   28   29 1
    58   28   62 1
    59   28   63 1
    60   29   30 1
    61   30   31 2
    62   32   64 1
    63   33   38 ar
    64   33   34 ar
    65   34   35 ar
    66   34   65 1
    67   35   36 ar
    68   35   66 1
    69   36   37 ar
    70   36   67 1
    71   37   38 ar
    72   37   68 1
    73   38   69 1
@<TRIPOS>MOLECULE
CHEMBL196929__1
   69    73     0     0     0
SMALL
USER_CHARGES

@<TRIPOS>ATOM
      1 C1         -0.8457   -1.0546   -0.3820 C.3       1 <0>        -0.1249
      2 C2         -1.7898   -2.1462    0.1258 C.3       1 <0>        -0.0213
      3 C3         -1.1336   -2.8852    1.2938 C.3       1 <0>        -0.1775
      4 C4         -3.0993   -1.5099    0.5960 C.3       1 <0>        -0.0946
      5 C5         -2.7959   -0.4228    1.6291 C.3       1 <0>         0.1368
      6 C6         -4.1035    0.2312    2.0801 C.3       1 <0>        -0.1004
      7 C7         -4.8526    0.7395    0.8753 C.ar      1 <0>        -0.0749
      8 C8         -4.6297    2.0256    0.4174 C.ar      1 <0>        -0.0974
      9 C9         -5.3129    2.4963   -0.6856 C.ar      1 <0>        -0.1082
     10 C10        -6.2287    1.6733   -1.3380 C.ar      1 <0>        -0.0421
     11 C11        -6.4493    0.3787   -0.8725 C.ar      1 <0>        -0.1084
     12 C12        -5.7563   -0.0836    0.2280 C.ar      1 <0>        -0.1111
     13 C13        -6.9666    2.1740   -2.5241 C.ar      1 <0>        -0.0478
     14 C14        -6.7421    3.4668   -2.9929 C.ar      1 <0>        -0.1107
     15 C15        -7.4309    3.9272   -4.0967 C.ar      1 <0>        -0.1175
     16 C16        -8.3430    3.1080   -4.7371 C.ar      1 <0>        -0.1182
     17 C17        -8.5702    1.8239   -4.2758 C.ar      1 <0>        -0.1173
     18 C18        -7.8824    1.3511   -3.1765 C.ar      1 <0>        -0.1107
     19 C19        -2.1060   -1.0390    2.8188 C.2       1 <0>         0.5075
     20 O1         -2.6733   -1.8841    3.4782 O.2       1 <0>        -0.5014
     21 N1         -0.8585   -0.6510    3.1499 N.am      1 <0>        -0.6777
     22 C20        -0.2060   -1.2475    4.2278 C.ar      1 <0>         0.1882
     23 C21        -0.3091   -2.6208    4.4290 C.ar      1 <0>        -0.1279
     24 C22         0.3327   -3.2160    5.4915 C.ar      1 <0>        -0.0108
     25 C23         1.0904   -2.4380    6.3708 C.ar      1 <0>        -0.2090
     26 C24         1.1897   -1.0573    6.1623 C.ar      1 <0>        -0.0826
     27 C25         0.5528   -0.4693    5.0986 C.ar      1 <0>        -0.1224
     28 C26         2.0649   -0.5278    7.2700 C.3       1 <0>         0.0914
     29 O2          2.4326   -1.6506    8.0758 O.3       1 <0>        -0.3142
     30 C27         1.8777   -2.7652    7.5706 C.2       1 <0>         0.5227
     31 O3          2.0073   -3.8801    8.0359 O.2       1 <0>        -0.4473
     32 O4         -1.9456    0.5658    1.0446 O.3       1 <0>        -0.5296
     33 C28        -2.0761   -3.1205   -0.9877 C.ar      1 <0>        -0.0662
     34 C29        -3.3740   -3.3086   -1.4248 C.ar      1 <0>        -0.1226
     35 C30        -3.6367   -4.2023   -2.4462 C.ar      1 <0>        -0.1162
     36 C31        -2.6014   -4.9075   -3.0308 C.ar      1 <0>        -0.1253
     37 C32        -1.3034   -4.7187   -2.5944 C.ar      1 <0>        -0.1170
     38 C33        -1.0402   -3.8219   -1.5759 C.ar      1 <0>        -0.1156
     39 H1         -0.1047   -1.4961   -1.0484 H         1 <0>         0.0464
     40 H2         -1.4185   -0.3017   -0.9234 H         1 <0>         0.0679
     41 H3         -0.3411   -0.5881    0.4642 H         1 <0>         0.0638
     42 H4         -0.7373   -2.1608    2.0054 H         1 <0>         0.0786
     43 H5         -1.8746   -3.5129    1.7889 H         1 <0>         0.0619
     44 H6         -0.3215   -3.5084    0.9193 H         1 <0>         0.0609
     45 H7         -3.6148   -1.0673   -0.2564 H         1 <0>         0.0978
     46 H8         -3.7328   -2.2734    1.0473 H         1 <0>         0.0886
     47 H9         -4.7148   -0.5029    2.6049 H         1 <0>         0.0967
     48 H10        -3.8819    1.0637    2.7479 H         1 <0>         0.0821
     49 H11        -3.9199    2.6627    0.9240 H         1 <0>         0.1224
     50 H12        -5.1384    3.5007   -1.0421 H         1 <0>         0.1250
     51 H13        -7.1583   -0.2632   -1.3742 H         1 <0>         0.1256
     52 H14        -5.9231   -1.0885    0.5869 H         1 <0>         0.1241
     53 H15        -6.0307    4.1076   -2.4931 H         1 <0>         0.1248
     54 H16        -7.2577    4.9291   -4.4609 H         1 <0>         0.1246
     55 H17        -8.8801    3.4724   -5.6004 H         1 <0>         0.1233
     56 H18        -9.2837    1.1886   -4.7794 H         1 <0>         0.1246
     57 H19        -8.0572    0.3468   -2.8198 H         1 <0>         0.1248
     58 H20        -0.4147    0.0434    2.6383 H         1 <0>         0.4170
     59 H21        -0.8952   -3.2216    3.7493 H         1 <0>         0.1485
     60 H22         0.2506   -4.2819    5.6453 H         1 <0>         0.1424
     61 H23         0.6364    0.5956    4.9393 H         1 <0>         0.1407
     62 H24         2.9565   -0.0617    6.8505 H         1 <0>         0.1189
     63 H25         1.5118    0.1959    7.8688 H         1 <0>         0.1184
     64 H26        -1.7117    1.2875    1.6442 H         1 <0>         0.3687
     65 H27        -4.1828   -2.7577   -0.9680 H         1 <0>         0.1230
     66 H28        -4.6508   -4.3498   -2.7871 H         1 <0>         0.1206
     67 H29        -2.8067   -5.6062   -3.8283 H         1 <0>         0.1201
     68 H30        -0.4946   -5.2699   -3.0510 H         1 <0>         0.1207
     69 H31        -0.0257   -3.6716   -1.2375 H         1 <0>         0.1195
@<TRIPOS>BOND
     1    1    2 1
     2    1   39 1
     3    1   40 1
     4    1   41 1
     5    2    3 1
     6    2    4 1
     7    2   33 1
     8    3   42 1
     9    3   43 1
    10    3   44 1
    11    4    5 1
    12    4   45 1
    13    4   46 1
    14    5    6 1
    15    5   19 1
    16    5   32 1
    17    6    7 1
    18    6   47 1
    19    6   48 1
    20    7   12 ar
    21    7    8 ar
    22    8    9 ar
    23    8   49 1
    24    9   10 ar
    25    9   50 1
    26   10   11 ar
    27   10   13 1
    28   11   12 ar
    29   11   51 1
    30   12   52 1
    31   13   18 ar
    32   13   14 ar
    33   14   15 ar
    34   14   53 1
    35   15   16 ar
    36   15   54 1
    37   16   17 ar
    38   16   55 1
    39   17   18 ar
    40   17   56 1
    41   18   57 1
    42   19   20 2
    43   19   21 am
    44   21   22 1
    45   21   58 1
    46   22   27 ar
    47   22   23 ar
    48   23   24 ar
    49   23   59 1
    50   24   25 ar
    51   24   60 1
    52   25   30 1
    53   25   26 ar
    54   26   27 ar
    55   26   28 1
    56   27   61 1
    57   28   29 1
    58   28   62 1
    59   28   63 1
    60   29   30 1
    61   30   31 2
    62   32   64 1
    63   33   38 ar
    64   33   34 ar
    65   34   35 ar
    66   34   65 1
    67   35   36 ar
    68   35   66 1
    69   36   37 ar
    70   36   67 1
    71   37   38 ar
    72   37   68 1
    73   38   69 1
@<TRIPOS>MOLECULE
CHEMBL251303
   82    88     0     0     0
SMALL
USER_CHARGES

@<TRIPOS>ATOM
      1 C1          4.2645   -5.2759   -2.7402 C.3       1 <0>        -0.0467
      2 C2          3.6556   -6.3169   -1.8962 C.1       1 <0>        -0.1618
      3 C3          3.1699   -7.1471   -1.2231 C.1       1 <0>        -0.2140
      4 C4          2.5610   -8.1881   -0.3791 C.3       1 <0>         0.2588
      5 C5          3.2071   -9.5633   -0.6749 C.3       1 <0>        -0.1448
      6 C6          2.0831  -10.4589   -1.2605 C.3       1 <0>        -0.1140
      7 C7          1.0874   -9.4390   -1.8289 C.3       1 <0>        -0.0794
      8 H1          1.4545   -9.0296   -2.7701 H         1 <0>         0.0808
      9 C8          1.0820   -8.3499   -0.7239 C.3       1 <0>        -0.0392
     10 C9          0.4067   -7.1216   -1.3088 C.3       1 <0>        -0.0955
     11 C10        -1.0736   -7.4742   -1.5205 C.3       1 <0>        -0.0335
     12 H2         -1.5582   -6.6692   -2.0728 H         1 <0>         0.1085
     13 C11        -1.2162   -8.7679   -2.2976 C.2       1 <0>        -0.0527
     14 C12        -2.1358   -8.8081   -3.2599 C.2       1 <0>        -0.1242
     15 C13        -2.9889   -7.5971   -3.5618 C.3       1 <0>        -0.0830
     16 C14        -3.0979   -7.4438   -5.0820 C.3       1 <0>        -0.1657
     17 C15        -3.5148   -8.7496   -5.7029 C.2       1 <0>         0.3866
     18 O1         -4.2548   -8.7415   -6.6661 O.2       1 <0>        -0.4683
     19 C16        -3.0641   -9.9788   -5.1904 C.2       1 <0>        -0.2435
     20 C17        -2.3667  -10.0265   -4.0354 C.2       1 <0>         0.0244
     21 C18        -1.8089  -11.3208   -3.4959 C.3       1 <0>        -0.0960
     22 C19        -0.3835  -11.0481   -3.0178 C.3       1 <0>        -0.1110
     23 C20        -0.3349   -9.9581   -1.9917 C.3       1 <0>        -0.0456
     24 H3         -0.6622  -10.3932   -1.0474 H         1 <0>         0.0946
     25 C21        -1.7430   -7.6272   -0.1790 C.ar      1 <0>        -0.0101
     26 C22        -1.4365   -6.7561    0.8497 C.ar      1 <0>        -0.1345
     27 C23        -2.0505   -6.8963    2.0802 C.ar      1 <0>        -0.0617
     28 C24        -2.9714   -7.9074    2.2819 C.ar      1 <0>        -0.7524
     29 C25        -3.2785   -8.7779    1.2530 C.ar      1 <0>        -0.0275
     30 C26        -2.6677   -8.6350    0.0212 C.ar      1 <0>        -0.1462
     31 P1         -3.7763   -8.0922    3.8970 P.3       1 <0>         2.6897
     32 O2         -4.3499   -9.4518    4.0097 O.2       1 <0>        -1.0190
     33 C27        -2.5544   -7.8404    5.2139 C.ar      1 <0>        -0.7445
     34 C28        -2.1563   -6.5605    5.5520 C.ar      1 <0>        -0.0688
     35 C29        -1.2252   -6.3686    6.5555 C.ar      1 <0>        -0.1381
     36 C30        -0.6924   -7.4567    7.2212 C.ar      1 <0>        -0.0825
     37 C31        -1.0911   -8.7365    6.8838 C.ar      1 <0>        -0.1367
     38 C32        -2.0254   -8.9282    5.8832 C.ar      1 <0>        -0.0349
     39 C33        -5.1000   -6.8623    4.0572 C.ar      1 <0>        -0.7440
     40 C34        -4.9975   -5.6477    3.4052 C.ar      1 <0>        -0.0692
     41 C35        -6.0062   -4.7104    3.5272 C.ar      1 <0>        -0.1383
     42 C36        -7.1176   -4.9879    4.3010 C.ar      1 <0>        -0.0830
     43 C37        -7.2205   -6.2028    4.9523 C.ar      1 <0>        -0.1366
     44 C38        -6.2138   -7.1418    4.8268 C.ar      1 <0>        -0.0365
     45 C39         0.3126   -8.8511    0.4999 C.3       1 <0>        -0.1578
     46 O3          2.7131   -7.8553    1.0023 O.3       1 <0>        -0.5396
     47 H4          5.3187   -5.1710   -2.4839 H         1 <0>         0.0822
     48 H5          4.1719   -5.5583   -3.7889 H         1 <0>         0.0827
     49 H6          3.7538   -4.3277   -2.5728 H         1 <0>         0.0819
     50 H7          4.0118   -9.4500   -1.4014 H         1 <0>         0.0727
     51 H8          3.5928  -10.0012    0.2458 H         1 <0>         0.0817
     52 H9          2.4733  -11.0987   -2.0520 H         1 <0>         0.0728
     53 H10         1.6177  -11.0554   -0.4758 H         1 <0>         0.0769
     54 H11         0.4934   -6.2849   -0.6157 H         1 <0>         0.0759
     55 H12         0.8668   -6.8639   -2.2627 H         1 <0>         0.0734
     56 H13        -3.9827   -7.7341   -3.1356 H         1 <0>         0.0837
     57 H14        -2.5248   -6.7073   -3.1365 H         1 <0>         0.0904
     58 H15        -3.8386   -6.6791   -5.3162 H         1 <0>         0.0952
     59 H16        -2.1308   -7.1438   -5.4855 H         1 <0>         0.0988
     60 H17        -3.2776  -10.8925   -5.7252 H         1 <0>         0.1366
     61 H18        -2.4188  -11.6667   -2.6614 H         1 <0>         0.0916
     62 H19        -1.7967  -12.0746   -4.2831 H         1 <0>         0.0871
     63 H20         0.0292  -11.9627   -2.5919 H         1 <0>         0.0809
     64 H21         0.2259  -10.7487   -3.8705 H         1 <0>         0.0671
     65 H22        -0.7170   -5.9662    0.6921 H         1 <0>         0.1266
     66 H23        -1.8105   -6.2162    2.8841 H         1 <0>         0.1195
     67 H24        -3.9977   -9.5680    1.4106 H         1 <0>         0.1450
     68 H25        -2.9104   -9.3128   -0.7839 H         1 <0>         0.1307
     69 H26        -2.5726   -5.7105    5.0318 H         1 <0>         0.1195
     70 H27        -0.9137   -5.3687    6.8191 H         1 <0>         0.1249
     71 H28         0.0356   -7.3068    8.0048 H         1 <0>         0.1260
     72 H29        -0.6746   -9.5866    7.4037 H         1 <0>         0.1305
     73 H30        -2.3397   -9.9279    5.6221 H         1 <0>         0.1465
     74 H31        -4.1292   -5.4309    2.8006 H         1 <0>         0.1230
     75 H32        -5.9258   -3.7612    3.0183 H         1 <0>         0.1254
     76 H33        -7.9054   -4.2553    4.3969 H         1 <0>         0.1266
     77 H34        -8.0887   -6.4195    5.5571 H         1 <0>         0.1307
     78 H35        -6.2959   -8.0925    5.3326 H         1 <0>         0.1424
     79 H36         0.2172   -8.0430    1.2251 H         1 <0>         0.0718
     80 H37        -0.6793   -9.1840    0.1942 H         1 <0>         0.0843
     81 H38         0.8518   -9.6835    0.9522 H         1 <0>         0.0545
     82 H39         3.6329   -7.7582    1.2845 H         1 <0>         0.3780
@<TRIPOS>BOND
     1    1    2 1
     2    1   47 1
     3    1   48 1
     4    1   49 1
     5    2    3 3
     6    3    4 1
     7    4    9 1
     8    4    5 1
     9    4   46 1
    10    5    6 1
    11    5   50 1
    12    5   51 1
    13    6    7 1
    14    6   52 1
    15    6   53 1
    16    7    8 1
    17    7   23 1
    18    7    9 1
    19    9   10 1
    20    9   45 1
    21   10   11 1
    22   10   54 1
    23   10   55 1
    24   11   12 1
    25   11   13 1
    26   11   25 1
    27   13   23 1
    28   13   14 2
    29   14   20 1
    30   14   15 1
    31   15   16 1
    32   15   56 1
    33   15   57 1
    34   16   17 1
    35   16   58 1
    36   16   59 1
    37   17   18 2
    38   17   19 1
    39   19   20 2
    40   19   60 1
    41   20   21 1
    42   21   22 1
    43   21   61 1
    44   21   62 1
    45   22   23 1
    46   22   63 1
    47   22   64 1
    48   23   24 1
    49   25   30 ar
    50   25   26 ar
    51   26   27 ar
    52   26   65 1
    53   27   28 ar
    54   27   66 1
    55   28   29 ar
    56   28   31 1
    57   29   30 ar
    58   29   67 1
    59   30   68 1
    60   31   32 2
    61   31   33 1
    62   31   39 1
    63   33   38 ar
    64   33   34 ar
    65   34   35 ar
    66   34   69 1
    67   35   36 ar
    68   35   70 1
    69   36   37 ar
    70   36   71 1
    71   37   38 ar
    72   37   72 1
    73   38   73 1
    74   39   44 ar
    75   39   40 ar
    76   40   41 ar
    77   40   74 1
    78   41   42 ar
    79   41   75 1
    80   42   43 ar
    81   42   76 1
    82   43   44 ar
    83   43   77 1
    84   44   78 1
    85   45   79 1
    86   45   80 1
    87   45   81 1
    88   46   82 1
@<TRIPOS>MOLECULE
CHEMBL103
   51    54     0     0     0
SMALL
USER_CHARGES

@<TRIPOS>ATOM
      1 C1         -1.2451    0.7480    0.4418 C.3       1 <0>        -0.2079
      2 C2         -0.0130   -0.0024    0.0062 C.2       1 <0>         0.3652
      3 O1          0.9705   -0.0070    0.7070 O.2       1 <0>        -0.4548
      4 C3         -0.0081   -0.7470   -1.3040 C.3       1 <0>        -0.1325
      5 H1         -0.6004   -0.2102   -2.0450 H         1 <0>         0.0978
      6 C4          1.4441   -0.9331   -1.8102 C.3       1 <0>        -0.1188
      7 C5          1.6574   -2.4625   -1.9764 C.3       1 <0>        -0.1150
      8 C6          0.2304   -2.9896   -2.1637 C.3       1 <0>        -0.0798
      9 H2         -0.1277   -2.7656   -3.1686 H         1 <0>         0.0787
     10 C7         -0.5545   -2.1580   -1.1120 C.3       1 <0>        -0.0490
     11 C8         -2.0316   -2.3550   -1.3940 C.3       1 <0>        -0.1045
     12 C9         -2.3478   -3.8377   -1.1415 C.3       1 <0>        -0.1235
     13 C10        -1.4843   -4.7528   -2.0045 C.3       1 <0>        -0.0601
     14 H3         -1.7432   -4.6061   -3.0531 H         1 <0>         0.0745
     15 C11         0.0221   -4.4589   -1.8452 C.3       1 <0>        -0.0789
     16 H4          0.3211   -4.6582   -0.8161 H         1 <0>         0.0881
     17 C12         0.8336   -5.3210   -2.8143 C.3       1 <0>        -0.1115
     18 C13         0.6511   -6.8015   -2.4654 C.3       1 <0>        -0.0957
     19 C14        -0.8350   -7.1068   -2.4640 C.2       1 <0>        -0.0284
     20 C15        -1.2808   -8.1344   -3.1732 C.2       1 <0>        -0.2297
     21 C16        -2.7173   -8.4490   -3.2129 C.2       1 <0>         0.4070
     22 O2         -3.1261   -9.4144   -3.8306 O.2       1 <0>        -0.4592
     23 C17        -3.6494   -7.5692   -2.4875 C.2       1 <0>        -0.2152
     24 C18        -3.1814   -6.5528   -1.7801 C.2       1 <0>        -0.0691
     25 C19        -1.7496   -6.2111   -1.6194 C.3       1 <0>        -0.0096
     26 C20        -1.3852   -6.3767   -0.1426 C.3       1 <0>        -0.1439
     27 C21        -0.2211   -2.6561    0.2957 C.3       1 <0>        -0.1576
     28 H5         -1.1980    1.7713    0.0694 H         1 <0>         0.0957
     29 H6         -2.1311    0.2558    0.0407 H         1 <0>         0.0848
     30 H7         -1.2975    0.7596    1.5305 H         1 <0>         0.0840
     31 H8          1.5734   -0.4309   -2.7690 H         1 <0>         0.0678
     32 H9          2.1487   -0.5342   -1.0805 H         1 <0>         0.0793
     33 H10         2.2652   -2.6738   -2.8562 H         1 <0>         0.0683
     34 H11         2.1113   -2.8881   -1.0814 H         1 <0>         0.0703
     35 H12        -2.6237   -1.7300   -0.7256 H         1 <0>         0.0680
     36 H13        -2.2487   -2.1005   -2.4314 H         1 <0>         0.0694
     37 H14        -2.1679   -4.0658   -0.0909 H         1 <0>         0.0760
     38 H15        -3.3979   -4.0211   -1.3691 H         1 <0>         0.0674
     39 H16         0.4893   -5.1434   -3.8331 H         1 <0>         0.0670
     40 H17         1.8885   -5.0577   -2.7377 H         1 <0>         0.0747
     41 H18         1.1530   -7.4195   -3.2098 H         1 <0>         0.0801
     42 H19         1.0686   -7.0011   -1.4785 H         1 <0>         0.0852
     43 H20        -0.5834   -8.7455   -3.7269 H         1 <0>         0.1363
     44 H21        -4.7127   -7.7527   -2.5328 H         1 <0>         0.1390
     45 H22        -3.8925   -5.9231   -1.2661 H         1 <0>         0.1246
     46 H23        -1.9994   -5.7079    0.4604 H         1 <0>         0.0732
     47 H24        -1.5638   -7.4078    0.1623 H         1 <0>         0.0615
     48 H25        -0.3327   -6.1323    0.0015 H         1 <0>         0.0724
     49 H26        -0.7596   -2.0571    1.0300 H         1 <0>         0.0521
     50 H27        -0.5173   -3.7007    0.3912 H         1 <0>         0.0708
     51 H28         0.8513   -2.5653    0.4688 H         1 <0>         0.0653
@<TRIPOS>BOND
     1    1    2 1
     2    1   28 1
     3    1   29 1
     4    1   30 1
     5    2    3 2
     6    2    4 1
     7    4    5 1
     8    4   10 1
     9    4    6 1
    10    6    7 1
    11    6   31 1
    12    6   32 1
    13    7    8 1
    14    7   33 1
    15    7   34 1
    16    8    9 1
    17    8   15 1
    18    8   10 1
    19   10   11 1
    20   10   27 1
    21   11   12 1
    22   11   35 1
    23   11   36 1
    24   12   13 1
    25   12   37 1
    26   12   38 1
    27   13   14 1
    28   13   25 1
    29   13   15 1
    30   15   16 1
    31   15   17 1
    32   17   18 1
    33   17   39 1
    34   17   40 1
    35   18   19 1
    36   18   41 1
    37   18   42 1
    38   19   25 1
    39   19   20 2
    40   20   21 1
    41   20   43 1
    42   21   22 2
    43   21   23 1
    44   23   24 2
    45   23   44 1
    46   24   25 1
    47   24   45 1
    48   25   26 1
    49   26   46 1
    50   26   47 1
    51   26   48 1
    52   27   49 1
    53   27   50 1
    54   27   51 1
@<TRIPOS>MOLECULE
CHEMBL258191
   47    50     0     0     0
SMALL
USER_CHARGES

@<TRIPOS>ATOM
      1 C1         -0.3199    1.3098   -0.2803 C.3       1 <0>        -0.1077
      2 C2         -0.2769   -0.1934   -0.1825 C.ar      1 <0>        -0.1524
      3 C3         -0.3757   -0.9588   -1.3241 C.ar      1 <0>        -0.0526
      4 C4         -0.3360   -2.3493   -1.2314 C.ar      1 <0>        -0.0910
      5 C5         -0.1985   -2.9586    0.0151 C.ar      1 <0>         0.0104
      6 C6         -0.1004   -2.1873    1.1594 C.ar      1 <0>        -0.1366
      7 C7         -0.1319   -0.8036    1.0601 C.ar      1 <0>         0.2362
      8 N1         -0.0198   -0.0012    2.2004 N.pl3     1 <0>        -0.7350
      9 C8         -0.1659   -0.6220    3.5238 C.3       1 <0>         0.1711
     10 C9          0.6484   -1.9224    3.5241 C.3       1 <0>        -0.1194
     11 C10         0.0420   -2.8776    2.4905 C.3       1 <0>        -0.0404
     12 C11         0.9656   -4.0875    2.3356 C.3       1 <0>        -0.1586
     13 C12        -1.6399   -0.9337    3.7901 C.3       1 <0>        -0.1615
     14 C13         0.3677    0.3237    4.6016 C.3       1 <0>        -0.1538
     15 Cl1        -0.1507   -4.6900    0.1316 Cl        1 <0>        -0.0557
     16 C14        -0.4403   -3.1785   -2.4559 C.ar      1 <0>        -0.0513
     17 C15         0.5591   -3.1289   -3.4200 C.ar      1 <0>        -0.0839
     18 C16         0.4692   -3.9006   -4.5672 C.ar      1 <0>        -0.1475
     19 C17        -0.6123   -4.7292   -4.7701 C.ar      1 <0>        -0.0689
     20 C18        -1.6288   -4.7947   -3.8137 C.ar      1 <0>        -0.1110
     21 C19        -1.5446   -4.0206   -2.6441 C.ar      1 <0>         0.1213
     22 N2         -2.6659   -4.2917   -1.8950 N.pl3     1 <0>        -0.5890
     23 H1         -2.8715   -3.8922   -1.0353 H         1 <0>         0.4128
     24 C20        -3.4484   -5.2080   -2.5429 C.2       1 <0>         0.0504
     25 C21        -2.8825   -5.5461   -3.7125 C.2       1 <0>        -0.2053
     26 H2          0.6914    1.6944   -0.4123 H         1 <0>         0.0685
     27 H3         -0.9335    1.6010   -1.1329 H         1 <0>         0.0697
     28 H4         -0.7488    1.7212    0.6334 H         1 <0>         0.0618
     29 H5         -0.4839   -0.4831   -2.2876 H         1 <0>         0.1315
     30 H6          0.1519    0.9500    2.1187 H         1 <0>         0.4027
     31 H7          1.6849   -1.7043    3.2668 H         1 <0>         0.0728
     32 H8          0.6041   -2.3808    4.5121 H         1 <0>         0.0786
     33 H9         -0.9382   -3.2148    2.8276 H         1 <0>         0.0822
     34 H10         1.7101   -3.8802    1.5670 H         1 <0>         0.0591
     35 H11         1.4669   -4.2856    3.2830 H         1 <0>         0.0508
     36 H12         0.3777   -4.9587    2.0465 H         1 <0>         0.0732
     37 H13        -2.0099   -1.6191    3.0276 H         1 <0>         0.0613
     38 H14        -1.7422   -1.3940    4.7728 H         1 <0>         0.0662
     39 H15        -2.2178   -0.0100    3.7596 H         1 <0>         0.0584
     40 H16        -0.1951    1.2569    4.5772 H         1 <0>         0.0623
     41 H17         0.2569   -0.1419    5.5809 H         1 <0>         0.0743
     42 H18         1.4216    0.5300    4.4146 H         1 <0>         0.0634
     43 H19         1.4126   -2.4834   -3.2742 H         1 <0>         0.1238
     44 H20         1.2531   -3.8519   -5.3085 H         1 <0>         0.1234
     45 H21        -0.6746   -5.3271   -5.6673 H         1 <0>         0.1215
     46 H22        -4.3866   -5.5944   -2.1731 H         1 <0>         0.1685
     47 H23        -3.2712   -6.2480   -4.4353 H         1 <0>         0.1454
@<TRIPOS>BOND
     1    1    2 1
     2    1   26 1
     3    1   27 1
     4    1   28 1
     5    2    7 ar
     6    2    3 ar
     7    3    4 ar
     8    3   29 1
     9    4    5 ar
    10    4   16 1
    11    5    6 ar
    12    5   15 1
    13    6   11 1
    14    6    7 ar
    15    7    8 1
    16    8    9 1
    17    8   30 1
    18    9   10 1
    19    9   13 1
    20    9   14 1
    21   10   11 1
    22   10   31 1
    23   10   32 1
    24   11   12 1
    25   11   33 1
    26   12   34 1
    27   12   35 1
    28   12   36 1
    29   13   37 1
    30   13   38 1
    31   13   39 1
    32   14   40 1
    33   14   41 1
    34   14   42 1
    35   16   21 ar
    36   16   17 ar
    37   17   18 ar
    38   17   43 1
    39   18   19 ar
    40   18   44 1
    41   19   20 ar
    42   19   45 1
    43   20   25 1
    44   20   21 ar
    45   21   22 1
    46   22   23 1
    47   22   24 1
    48   24   25 2
    49   24   46 1
    50   25   47 1
@<TRIPOS>MOLECULE
CHEMBL258191__1
   47    50     0     0     0
SMALL
USER_CHARGES

@<TRIPOS>ATOM
      1 C1         -0.1479    1.5789    0.1579 C.3       1 <0>        -0.1044
      2 C2         -0.1211    0.0732    0.1005 C.ar      1 <0>        -0.1523
      3 C3         -0.1675   -0.5683   -1.1182 C.ar      1 <0>        -0.0528
      4 C4         -0.1422   -1.9612   -1.1692 C.ar      1 <0>        -0.0907
      5 C5         -0.0683   -2.6982    0.0120 C.ar      1 <0>         0.0104
      6 C6         -0.0210   -2.0512    1.2339 C.ar      1 <0>        -0.1360
      7 C7         -0.0437   -0.6644    1.2783 C.ar      1 <0>         0.2363
      8 N1         -0.0006    0.0135    2.5012 N.pl3     1 <0>        -0.7359
      9 C8          0.3773   -0.7277    3.7120 C.3       1 <0>         0.1724
     10 C9         -0.3796   -2.0623    3.7002 C.3       1 <0>        -0.1198
     11 C10         0.0637   -2.8773    2.4904 C.3       1 <0>        -0.0411
     12 C11        -0.8281   -4.1119    2.3441 C.3       1 <0>        -0.1560
     13 C12        -0.0106    0.0770    4.9542 C.3       1 <0>        -0.1536
     14 C13         1.8851   -0.9871    3.7113 C.3       1 <0>        -0.1619
     15 Cl1        -0.0362   -4.4328   -0.0506 Cl        1 <0>        -0.0557
     16 C14        -0.1943   -2.6575   -2.4770 C.ar      1 <0>        -0.0515
     17 C15         0.8501   -2.5202   -3.3833 C.ar      1 <0>        -0.0839
     18 C16         0.8091   -3.1676   -4.6076 C.ar      1 <0>        -0.1475
     19 C17        -0.2674   -3.9574   -4.9457 C.ar      1 <0>        -0.0688
     20 C18        -1.3286   -4.1096   -4.0496 C.ar      1 <0>        -0.1109
     21 C19        -1.2944   -3.4621   -2.8031 C.ar      1 <0>         0.1215
     22 N2         -2.4519   -3.7959   -2.1391 N.pl3     1 <0>        -0.5889
     23 H1         -2.6951   -3.4854   -1.2529 H         1 <0>         0.4128
     24 C20        -3.2093   -4.6305   -2.9146 C.2       1 <0>         0.0505
     25 C21        -2.5911   -4.8522   -4.0855 C.2       1 <0>        -0.2053
     26 H2          0.8716    1.9623    0.1172 H         1 <0>         0.0698
     27 H3         -0.7153    1.9647   -0.6890 H         1 <0>         0.0692
     28 H4         -0.6195    1.8987    1.0872 H         1 <0>         0.0587
     29 H5         -0.2236    0.0063   -2.0310 H         1 <0>         0.1317
     30 H6         -0.2163    0.9580    2.5489 H         1 <0>         0.4019
     31 H7         -0.1615   -2.6139    4.6147 H         1 <0>         0.0792
     32 H8         -1.4510   -1.8739    3.6317 H         1 <0>         0.0703
     33 H9          1.0951   -3.1953    2.6431 H         1 <0>         0.0818
     34 H10        -0.2591   -4.9184    1.8815 H         1 <0>         0.0748
     35 H11        -1.1737   -4.4291    3.3280 H         1 <0>         0.0511
     36 H12        -1.6867   -3.8678    1.7186 H         1 <0>         0.0552
     37 H13        -1.0874    0.2457    4.9562 H         1 <0>         0.0628
     38 H14         0.2720   -0.4775    5.8491 H         1 <0>         0.0744
     39 H15         0.5075    1.0359    4.9423 H         1 <0>         0.0627
     40 H16         2.4174   -0.0361    3.6901 H         1 <0>         0.0589
     41 H17         2.1596   -1.5370    4.6115 H         1 <0>         0.0662
     42 H18         2.1526   -1.5729    2.8320 H         1 <0>         0.0622
     43 H19         1.7003   -1.9037   -3.1315 H         1 <0>         0.1239
     44 H20         1.6276   -3.0516   -5.3026 H         1 <0>         0.1235
     45 H21        -0.2915   -4.4582   -5.9023 H         1 <0>         0.1215
     46 H22        -4.1668   -5.0419   -2.6310 H         1 <0>         0.1685
     47 H23        -2.9502   -5.4706   -4.8949 H         1 <0>         0.1454
@<TRIPOS>BOND
     1    1    2 1
     2    1   26 1
     3    1   27 1
     4    1   28 1
     5    2    7 ar
     6    2    3 ar
     7    3    4 ar
     8    3   29 1
     9    4    5 ar
    10    4   16 1
    11    5    6 ar
    12    5   15 1
    13    6   11 1
    14    6    7 ar
    15    7    8 1
    16    8    9 1
    17    8   30 1
    18    9   10 1
    19    9   13 1
    20    9   14 1
    21   10   11 1
    22   10   31 1
    23   10   32 1
    24   11   12 1
    25   11   33 1
    26   12   34 1
    27   12   35 1
    28   12   36 1
    29   13   37 1
    30   13   38 1
    31   13   39 1
    32   14   40 1
    33   14   41 1
    34   14   42 1
    35   16   21 ar
    36   16   17 ar
    37   17   18 ar
    38   17   43 1
    39   18   19 ar
    40   18   44 1
    41   19   20 ar
    42   19   45 1
    43   20   25 1
    44   20   21 ar
    45   21   22 1
    46   22   23 1
    47   22   24 1
    48   24   25 2
    49   24   46 1
    50   25   47 1
@<TRIPOS>MOLECULE
CHEMBL230901
   65    69     0     0     0
SMALL
USER_CHARGES

@<TRIPOS>ATOM
      1 C1         -1.5807    2.2163    1.0300 C.3       1 <0>        -0.0464
      2 C2         -1.1282    0.8174    1.1009 C.1       1 <0>        -0.1612
      3 C3         -0.7672   -0.2983    1.1575 C.1       1 <0>        -0.2134
      4 C4         -0.3147   -1.6972    1.2284 C.3       1 <0>         0.2598
      5 C5          0.9227   -1.9065    0.3223 C.3       1 <0>        -0.1458
      6 C6          0.4910   -2.9041   -0.7852 C.3       1 <0>        -0.1088
      7 C7         -1.0334   -2.7316   -0.8341 C.3       1 <0>        -0.0764
      8 H1         -1.2984   -1.8119   -1.3556 H         1 <0>         0.0867
      9 C8         -1.3892   -2.6291    0.6726 C.3       1 <0>        -0.0333
     10 C9         -2.8155   -2.1160    0.7670 C.3       1 <0>        -0.0968
     11 C10        -3.7328   -3.2230    0.2231 C.3       1 <0>        -0.0095
     12 H2         -4.7482   -2.8365    0.1358 H         1 <0>         0.0992
     13 C11        -3.2608   -3.6936   -1.1349 C.2       1 <0>        -0.0893
     14 C12        -4.1719   -3.9046   -2.0840 C.2       1 <0>        -0.1211
     15 C13        -5.6427   -3.6911   -1.8254 C.3       1 <0>        -0.0772
     16 C14        -6.2644   -3.0142   -3.0509 C.3       1 <0>        -0.1660
     17 C15        -5.8828   -3.7593   -4.3012 C.2       1 <0>         0.3863
     18 O1         -6.6903   -3.8622   -5.2027 O.2       1 <0>        -0.4636
     19 C16        -4.6095   -4.3385   -4.4470 C.2       1 <0>        -0.2234
     20 C17        -3.7548   -4.3831   -3.4041 C.2       1 <0>        -0.0248
     21 C18        -2.3505   -4.9207   -3.5371 C.3       1 <0>         0.0947
     22 O2         -1.4906   -4.0712   -2.7766 O.3       1 <0>        -0.3627
     23 C19        -1.7893   -3.9155   -1.4216 C.3       1 <0>         0.1402
     24 H3         -1.4713   -4.8288   -0.9188 H         1 <0>         0.0777
     25 C20        -3.7261   -4.3871    1.1801 C.ar      1 <0>        -0.1168
     26 C21        -3.7923   -4.1604    2.5427 C.ar      1 <0>        -0.0631
     27 C22        -3.7864   -5.2249    3.4225 C.ar      1 <0>        -0.1915
     28 C23        -3.7139   -6.5245    2.9373 C.ar      1 <0>         0.2135
     29 C24        -3.6475   -6.7487    1.5680 C.ar      1 <0>        -0.1935
     30 C25        -3.6595   -5.6798    0.6935 C.ar      1 <0>        -0.0757
     31 N1         -3.7072   -7.6035    3.8243 N.pl3     1 <0>        -0.6386
     32 C26        -3.7768   -7.3652    5.2681 C.3       1 <0>         0.0925
     33 C27        -3.6306   -8.9734    3.3108 C.3       1 <0>         0.0927
     34 C28        -1.2756   -4.0059    1.3300 C.3       1 <0>        -0.1504
     35 O3         -0.0059   -2.0484    2.5788 O.3       1 <0>        -0.5380
     36 H4         -0.8051    2.8698    1.4294 H         1 <0>         0.0819
     37 H5         -1.7800    2.4815   -0.0083 H         1 <0>         0.0825
     38 H6         -2.4921    2.3335    1.6163 H         1 <0>         0.0822
     39 H7          1.2237   -0.9589   -0.1245 H         1 <0>         0.0736
     40 H8          1.7450   -2.3248    0.9028 H         1 <0>         0.0824
     41 H9          0.9398   -2.6357   -1.7416 H         1 <0>         0.0760
     42 H10         0.7543   -3.9249   -0.5080 H         1 <0>         0.0752
     43 H11        -3.0657   -1.9038    1.8065 H         1 <0>         0.0791
     44 H12        -2.9260   -1.2135    0.1659 H         1 <0>         0.0707
     45 H13        -6.1270   -4.6524   -1.6538 H         1 <0>         0.0845
     46 H14        -5.7713   -3.0533   -0.9509 H         1 <0>         0.0936
     47 H15        -7.3497   -3.0095   -2.9497 H         1 <0>         0.0973
     48 H16        -5.9049   -1.9873   -3.1179 H         1 <0>         0.1006
     49 H17        -4.3139   -4.7506   -5.4005 H         1 <0>         0.1397
     50 H18        -2.3051   -5.9376   -3.1473 H         1 <0>         0.0771
     51 H19        -2.0482   -4.9112   -4.5843 H         1 <0>         0.1193
     52 H20        -3.8484   -3.1497    2.9192 H         1 <0>         0.1220
     53 H21        -3.8378   -5.0472    4.4865 H         1 <0>         0.1214
     54 H22        -3.5906   -7.7578    1.1875 H         1 <0>         0.1199
     55 H23        -3.6123   -5.8535   -0.3714 H         1 <0>         0.1164
     56 H24        -4.8200   -7.3474    5.5836 H         1 <0>         0.0478
     57 H25        -3.2518   -8.1628    5.7937 H         1 <0>         0.0659
     58 H26        -3.3104   -6.4080    5.5013 H         1 <0>         0.0693
     59 H27        -2.5857   -9.2718    3.2261 H         1 <0>         0.0481
     60 H28        -4.1466   -9.6472    3.9949 H         1 <0>         0.0660
     61 H29        -4.1026   -9.0205    2.3295 H         1 <0>         0.0681
     62 H30        -1.6996   -3.9656    2.3333 H         1 <0>         0.0752
     63 H31        -1.8202   -4.7389    0.7347 H         1 <0>         0.0799
     64 H32        -0.2262   -4.2943    1.3903 H         1 <0>         0.0501
     65 H33         0.6845   -1.5024    2.9791 H         1 <0>         0.3783
@<TRIPOS>BOND
     1    1    2 1
     2    1   36 1
     3    1   37 1
     4    1   38 1
     5    2    3 3
     6    3    4 1
     7    4    9 1
     8    4    5 1
     9    4   35 1
    10    5    6 1
    11    5   39 1
    12    5   40 1
    13    6    7 1
    14    6   41 1
    15    6   42 1
    16    7    8 1
    17    7   23 1
    18    7    9 1
    19    9   10 1
    20    9   34 1
    21   10   11 1
    22   10   43 1
    23   10   44 1
    24   11   12 1
    25   11   13 1
    26   11   25 1
    27   13   23 1
    28   13   14 2
    29   14   20 1
    30   14   15 1
    31   15   16 1
    32   15   45 1
    33   15   46 1
    34   16   17 1
    35   16   47 1
    36   16   48 1
    37   17   18 2
    38   17   19 1
    39   19   20 2
    40   19   49 1
    41   20   21 1
    42   21   22 1
    43   21   50 1
    44   21   51 1
    45   22   23 1
    46   23   24 1
    47   25   30 ar
    48   25   26 ar
    49   26   27 ar
    50   26   52 1
    51   27   28 ar
    52   27   53 1
    53   28   29 ar
    54   28   31 1
    55   29   30 ar
    56   29   54 1
    57   30   55 1
    58   31   32 1
    59   31   33 1
    60   32   56 1
    61   32   57 1
    62   32   58 1
    63   33   59 1
    64   33   60 1
    65   33   61 1
    66   34   62 1
    67   34   63 1
    68   34   64 1
    69   35   65 1
@<TRIPOS>MOLECULE
CHEMBL216272
   57    60     0     0     0
SMALL
USER_CHARGES

@<TRIPOS>ATOM
      1 C1         -4.6599    7.1264   -0.9269 C.3       1 <0>        -0.1040
      2 C2         -3.7411    6.2453   -0.1202 C.2       1 <0>         0.1577
      3 C3         -4.1982    4.9297    0.3525 C.ar      1 <0>        -0.0561
      4 C4         -5.3507    4.3194   -0.1190 C.ar      1 <0>        -0.1012
      5 C5         -5.7174    3.0778    0.3840 C.ar      1 <0>         0.1735
      6 C6         -4.9401    2.4459    1.3537 C.ar      1 <0>        -0.1056
      7 C7         -3.7904    3.0403    1.8290 C.ar      1 <0>        -0.0263
      8 C8         -3.4088    4.2804    1.3330 C.ar      1 <0>        -0.1626
      9 C9         -2.1913    4.9824    1.7743 C.2       1 <0>         0.4867
     10 O1         -1.7121    4.7927    2.8761 O.2       1 <0>        -0.4338
     11 O2         -1.6304    5.8465    0.8993 O.3       1 <0>        -0.1617
     12 N1         -2.5374    6.6363    0.1603 N.2       1 <0>        -0.2542
     13 N2         -6.8753    2.4571   -0.0853 N.am      1 <0>        -0.6578
     14 C10        -6.9069    1.1187   -0.2402 C.2       1 <0>         0.4921
     15 O3         -5.9663    0.4440    0.1216 O.2       1 <0>        -0.4778
     16 C11        -8.1111    0.4604   -0.8630 C.3       1 <0>         0.0868
     17 C12        -8.2045   -0.9896   -0.3840 C.3       1 <0>        -0.1363
     18 C13        -9.4689   -1.6349   -0.9547 C.3       1 <0>        -0.0188
     19 C14        -9.8716   -2.8260   -0.0830 C.3       1 <0>        -0.1350
     20 C15       -10.6030   -0.6079   -0.9703 C.3       1 <0>        -0.1584
     21 C16        -9.2008   -2.1086   -2.3599 C.ar      1 <0>        -0.0949
     22 C17        -7.9446   -2.5641   -2.7038 C.ar      1 <0>        -0.0940
     23 C18        -7.6878   -3.0009   -3.9900 C.ar      1 <0>        -0.1415
     24 C19        -8.6959   -2.9767   -4.9379 C.ar      1 <0>        -0.0740
     25 C20        -9.9495   -2.5198   -4.5977 C.ar      1 <0>        -0.1764
     26 C21       -10.2231   -2.0904   -3.3050 C.ar      1 <0>         0.1281
     27 O4        -11.5238   -1.7092   -3.1773 O.3       1 <0>        -0.2922
     28 C22       -12.0717   -1.4512   -4.4813 C.3       1 <0>         0.0468
     29 C23       -11.2283   -2.3642   -5.3977 C.3       1 <0>        -0.1105
     30 C24        -7.9755    0.4865   -2.3867 C.3       1 <0>         0.4723
     31 F1         -6.9292   -0.3566   -2.7763 F         1 <0>        -0.1564
     32 F2         -9.1695    0.0473   -2.9687 F         1 <0>        -0.1398
     33 F3         -7.7038    1.7924   -2.8085 F         1 <0>        -0.1775
     34 O5         -9.2923    1.1663   -0.4778 O.3       1 <0>        -0.5172
     35 H1         -4.1425    8.0501   -1.1860 H         1 <0>         0.0948
     36 H2         -4.9538    6.6065   -1.8387 H         1 <0>         0.1000
     37 H3         -5.5478    7.3598   -0.3394 H         1 <0>         0.0990
     38 H4         -5.9567    4.8045   -0.8699 H         1 <0>         0.1522
     39 H5         -5.2415    1.4820    1.7363 H         1 <0>         0.1557
     40 H6         -3.1922    2.5464    2.5804 H         1 <0>         0.1522
     41 H7         -7.6577    2.9888   -0.3001 H         1 <0>         0.4248
     42 H8         -7.3290   -1.5421   -0.7251 H         1 <0>         0.1070
     43 H9         -8.2456   -1.0106    0.7051 H         1 <0>         0.0999
     44 H10       -10.1485   -2.4724    0.9102 H         1 <0>         0.0608
     45 H11       -10.7208   -3.3374   -0.5364 H         1 <0>         0.0628
     46 H12        -9.0325   -3.5170   -0.0018 H         1 <0>         0.0576
     47 H13       -10.3611    0.1898   -1.6726 H         1 <0>         0.0964
     48 H14       -11.5290   -1.0939   -1.2775 H         1 <0>         0.0660
     49 H15       -10.7267   -0.1880    0.0279 H         1 <0>         0.0522
     50 H16        -7.1577   -2.5792   -1.9643 H         1 <0>         0.1318
     51 H17        -6.7040   -3.3594   -4.2543 H         1 <0>         0.1270
     52 H18        -8.4995   -3.3164   -5.9441 H         1 <0>         0.1225
     53 H19       -13.1257   -1.7265   -4.5186 H         1 <0>         0.1054
     54 H20       -11.9345   -0.4059   -4.7580 H         1 <0>         0.0750
     55 H21       -11.0311   -1.8892   -6.3587 H         1 <0>         0.0902
     56 H22       -11.7218   -3.3264   -5.5344 H         1 <0>         0.0884
     57 H23        -9.4423    1.1904    0.4772 H         1 <0>         0.3984
@<TRIPOS>BOND
     1    1    2 1
     2    1   35 1
     3    1   36 1
     4    1   37 1
     5    2   12 2
     6    2    3 1
     7    3    8 ar
     8    3    4 ar
     9    4    5 ar
    10    4   38 1
    11    5    6 ar
    12    5   13 1
    13    6    7 ar
    14    6   39 1
    15    7    8 ar
    16    7   40 1
    17    8    9 1
    18    9   10 2
    19    9   11 1
    20   11   12 1
    21   13   14 am
    22   13   41 1
    23   14   15 2
    24   14   16 1
    25   16   17 1
    26   16   30 1
    27   16   34 1
    28   17   18 1
    29   17   42 1
    30   17   43 1
    31   18   19 1
    32   18   20 1
    33   18   21 1
    34   19   44 1
    35   19   45 1
    36   19   46 1
    37   20   47 1
    38   20   48 1
    39   20   49 1
    40   21   26 ar
    41   21   22 ar
    42   22   23 ar
    43   22   50 1
    44   23   24 ar
    45   23   51 1
    46   24   25 ar
    47   24   52 1
    48   25   29 1
    49   25   26 ar
    50   26   27 1
    51   27   28 1
    52   28   29 1
    53   28   53 1
    54   28   54 1
    55   29   55 1
    56   29   56 1
    57   30   31 1
    58   30   32 1
    59   30   33 1
    60   34   57 1
@<TRIPOS>MOLECULE
CHEMBL216272__1
   57    60     0     0     0
SMALL
USER_CHARGES

@<TRIPOS>ATOM
      1 C1         -1.9669    0.3180   -7.9205 C.3       1 <0>        -0.1036
      2 C2         -1.2825   -0.3471   -6.7542 C.2       1 <0>         0.1574
      3 C3         -1.9302   -0.3840   -5.4342 C.ar      1 <0>        -0.0564
      4 C4         -3.2671   -0.0690   -5.2430 C.ar      1 <0>        -0.1021
      5 C5         -3.8018   -0.1217   -3.9623 C.ar      1 <0>         0.1735
      6 C6         -3.0085   -0.4860   -2.8752 C.ar      1 <0>        -0.1052
      7 C7         -1.6786   -0.8043   -3.0517 C.ar      1 <0>        -0.0257
      8 C8         -1.1304   -0.7594   -4.3273 C.ar      1 <0>        -0.1625
      9 C9          0.2760   -1.0945   -4.6097 C.2       1 <0>         0.4864
     10 O1          1.1413   -0.9703   -3.7638 O.2       1 <0>        -0.4332
     11 O2          0.5613   -1.5466   -5.8511 O.3       1 <0>        -0.1617
     12 N1         -0.1186   -0.8978   -6.9044 N.2       1 <0>        -0.2543
     13 N2         -5.1460    0.1934   -3.7615 N.am      1 <0>        -0.6574
     14 C10        -5.8641   -0.4749   -2.8373 C.2       1 <0>         0.4916
     15 O3         -5.3218   -1.2894   -2.1207 O.2       1 <0>        -0.4782
     16 C11        -7.3407   -0.2102   -2.6943 C.3       1 <0>         0.0863
     17 C12        -8.0231   -1.4392   -2.0903 C.3       1 <0>        -0.1381
     18 C13        -9.5345   -1.2081   -2.0357 C.3       1 <0>        -0.0186
     19 C14        -9.9800   -0.4494   -3.2874 C.3       1 <0>        -0.1534
     20 C15       -10.2547   -2.5565   -1.9732 C.3       1 <0>        -0.1349
     21 C16        -9.8751   -0.3995   -0.8104 C.ar      1 <0>        -0.0873
     22 C17        -9.0274   -0.4106    0.2781 C.ar      1 <0>        -0.1045
     23 C18        -9.3303    0.3274    1.4071 C.ar      1 <0>        -0.1399
     24 C19       -10.4925    1.0778    1.4460 C.ar      1 <0>        -0.0761
     25 C20       -11.3414    1.0881    0.3619 C.ar      1 <0>        -0.1733
     26 C21       -11.0414    0.3608   -0.7831 C.ar      1 <0>         0.1205
     27 O4        -11.9942    0.5329   -1.7401 O.3       1 <0>        -0.2932
     28 C22       -13.1953    1.0325   -1.1279 C.3       1 <0>         0.0465
     29 C23       -12.6644    1.7857    0.1112 C.3       1 <0>        -0.1106
     30 C24        -7.5562    0.9953   -1.7770 C.3       1 <0>         0.4713
     31 F1         -6.7985    2.0758   -2.2412 F         1 <0>        -0.1771
     32 F2         -8.9113    1.3429   -1.7744 F         1 <0>        -0.1375
     33 F3         -7.1559    0.6693   -0.4768 F         1 <0>        -0.1557
     34 O5         -7.9023    0.0629   -3.9796 O.3       1 <0>        -0.5162
     35 H1         -1.3360    0.2382   -8.8058 H         1 <0>         0.0946
     36 H2         -2.9218   -0.1726   -8.1093 H         1 <0>         0.0995
     37 H3         -2.1380    1.3695   -7.6899 H         1 <0>         0.0991
     38 H4         -3.8862    0.2141   -6.0815 H         1 <0>         0.1523
     39 H5         -3.4396   -0.5188   -1.8855 H         1 <0>         0.1557
     40 H6         -1.0687   -1.0855   -2.2060 H         1 <0>         0.1523
     41 H7         -5.5638    0.8934   -4.2871 H         1 <0>         0.4252
     42 H8         -7.8111   -2.3124   -2.7072 H         1 <0>         0.1003
     43 H9         -7.6444   -1.6061   -1.0819 H         1 <0>         0.1080
     44 H10        -9.6052   -0.9602   -4.1744 H         1 <0>         0.0540
     45 H11       -11.0688   -0.4130   -3.3220 H         1 <0>         0.0637
     46 H12        -9.5833    0.5654   -3.2577 H         1 <0>         0.0929
     47 H13       -10.0044   -3.0592   -1.0390 H         1 <0>         0.0576
     48 H14       -11.3317   -2.3958   -2.0222 H         1 <0>         0.0632
     49 H15        -9.9411   -3.1752   -2.8141 H         1 <0>         0.0604
     50 H16        -8.1224   -0.9994    0.2481 H         1 <0>         0.1370
     51 H17        -8.6626    0.3182    2.2558 H         1 <0>         0.1269
     52 H18       -10.7334    1.6554    2.3262 H         1 <0>         0.1224
     53 H19       -13.7194    1.7099   -1.8021 H         1 <0>         0.1058
     54 H20       -13.8437    0.2112   -0.8229 H         1 <0>         0.0745
     55 H21       -13.3337    1.6694    0.9637 H         1 <0>         0.0905
     56 H22       -12.5112    2.8396   -0.1209 H         1 <0>         0.0884
     57 H23        -7.8022   -0.6598   -4.6142 H         1 <0>         0.3986
@<TRIPOS>BOND
     1    1    2 1
     2    1   35 1
     3    1   36 1
     4    1   37 1
     5    2   12 2
     6    2    3 1
     7    3    8 ar
     8    3    4 ar
     9    4    5 ar
    10    4   38 1
    11    5    6 ar
    12    5   13 1
    13    6    7 ar
    14    6   39 1
    15    7    8 ar
    16    7   40 1
    17    8    9 1
    18    9   10 2
    19    9   11 1
    20   11   12 1
    21   13   14 am
    22   13   41 1
    23   14   15 2
    24   14   16 1
    25   16   17 1
    26   16   30 1
    27   16   34 1
    28   17   18 1
    29   17   42 1
    30   17   43 1
    31   18   19 1
    32   18   20 1
    33   18   21 1
    34   19   44 1
    35   19   45 1
    36   19   46 1
    37   20   47 1
    38   20   48 1
    39   20   49 1
    40   21   26 ar
    41   21   22 ar
    42   22   23 ar
    43   22   50 1
    44   23   24 ar
    45   23   51 1
    46   24   25 ar
    47   24   52 1
    48   25   29 1
    49   25   26 ar
    50   26   27 1
    51   27   28 1
    52   28   29 1
    53   28   53 1
    54   28   54 1
    55   29   55 1
    56   29   56 1
    57   30   31 1
    58   30   32 1
    59   30   33 1
    60   34   57 1
@<TRIPOS>MOLECULE
CHEMBL364751
   36    38     0     0     0
SMALL
USER_CHARGES

@<TRIPOS>ATOM
      1 C1         -1.9610    0.5759    0.3864 C.3       1 <0>        -0.1017
      2 C2         -0.8389   -0.4053    0.1648 C.2       1 <0>        -0.1177
      3 C3         -0.7197   -1.0702   -1.0242 C.2       1 <0>        -0.0708
      4 C4          0.3288   -1.9646   -1.1844 C.2       1 <0>        -0.1287
      5 S1          1.1603   -1.8547    0.3915 S.3       1 <0>         0.1572
      6 C5          0.0941   -0.6463    1.1595 C.2       1 <0>        -0.0889
      7 C6          0.1829   -0.0563    2.5108 C.ar      1 <0>        -0.0072
      8 C7          0.0556    1.3256    2.6805 C.ar      1 <0>        -0.0780
      9 C8          0.1384    1.8785    3.9394 C.ar      1 <0>        -0.1010
     10 C9          0.3483    1.0637    5.0442 C.ar      1 <0>         0.1033
     11 C10         0.4759   -0.3188    4.8816 C.ar      1 <0>         0.0959
     12 C11         0.3880   -0.8784    3.6192 C.ar      1 <0>        -0.0833
     13 N1          0.6751   -0.8564    6.1517 N.am      1 <0>        -0.5332
     14 C12         0.6688    0.1516    7.0440 C.2       1 <0>         0.6836
     15 N2          0.4739    1.3211    6.4065 N.am      1 <0>        -0.6429
     16 O1          0.8162    0.0248    8.2452 O.2       1 <0>        -0.5460
     17 C13         0.8594   -2.2761    6.4629 C.3       1 <0>         0.1566
     18 C14         2.2198   -2.4790    7.1328 C.3       1 <0>        -0.1705
     19 C15        -0.2496   -2.7387    7.4101 C.3       1 <0>        -0.1704
     20 C16         0.6589   -2.7697   -2.3218 C.1       1 <0>         0.2904
     21 N3          0.9208   -3.4083   -3.2240 N.1       1 <0>        -0.3916
     22 H1         -1.6131    1.5833    0.1582 H         1 <0>         0.0748
     23 H2         -2.7978    0.3242   -0.2652 H         1 <0>         0.0701
     24 H3         -2.2839    0.5299    1.4265 H         1 <0>         0.0735
     25 H4         -1.4277   -0.9028   -1.8223 H         1 <0>         0.1484
     26 H5         -0.1077    1.9611    1.8226 H         1 <0>         0.1416
     27 H6          0.0404    2.9464    4.0674 H         1 <0>         0.1398
     28 H7          0.4820   -1.9468    3.4919 H         1 <0>         0.1346
     29 H8          0.8172   -2.8582    5.5423 H         1 <0>         0.0992
     30 H9          2.2620   -1.8968    8.0533 H         1 <0>         0.0756
     31 H10         2.3569   -3.5352    7.3643 H         1 <0>         0.0775
     32 H11         3.0099   -2.1494    6.4580 H         1 <0>         0.0603
     33 H12        -0.2075   -2.1565    8.3306 H         1 <0>         0.0756
     34 H13        -1.2188   -2.5942    6.9328 H         1 <0>         0.0603
     35 H14        -0.1125   -3.7950    7.6416 H         1 <0>         0.0774
     36 H15         0.4293    2.1949    6.8252 H         1 <0>         0.4364
@<TRIPOS>BOND
     1    1    2 1
     2    1   22 1
     3    1   23 1
     4    1   24 1
     5    2    6 2
     6    2    3 1
     7    3    4 2
     8    3   25 1
     9    4    5 1
    10    4   20 1
    11    5    6 1
    12    6    7 1
    13    7   12 ar
    14    7    8 ar
    15    8    9 ar
    16    8   26 1
    17    9   10 ar
    18    9   27 1
    19   10   15 1
    20   10   11 ar
    21   11   12 ar
    22   11   13 1
    23   12   28 1
    24   13   14 am
    25   13   17 1
    26   14   15 am
    27   14   16 2
    28   15   36 1
    29   17   18 1
    30   17   19 1
    31   17   29 1
    32   18   30 1
    33   18   31 1
    34   18   32 1
    35   19   33 1
    36   19   34 1
    37   19   35 1
    38   20   21 3
@<TRIPOS>MOLECULE
CHEMBL364751__1
   36    38     0     0     0
SMALL
USER_CHARGES

@<TRIPOS>ATOM
      1 C1         -1.9616    0.5758    0.3873 C.3       1 <0>        -0.1017
      2 C2         -0.8394   -0.4052    0.1652 C.2       1 <0>        -0.1184
      3 C3         -0.7203   -1.0696   -1.0239 C.2       1 <0>        -0.0694
      4 C4          0.3284   -1.9639   -1.1847 C.2       1 <0>        -0.1302
      5 S1          1.1602   -1.8545    0.3910 S.3       1 <0>         0.1528
      6 C5          0.0941   -0.6465    1.1598 C.2       1 <0>        -0.0864
      7 C6          0.1835   -0.0569    2.5106 C.ar      1 <0>        -0.0007
      8 C7          0.0564    1.3279    2.6789 C.ar      1 <0>        -0.0947
      9 C8          0.1371    1.8840    3.9209 C.ar      1 <0>        -0.0597
     10 C9          0.3486    1.0722    5.0406 C.ar      1 <0>         0.0730
     11 C10         0.4770   -0.3188    4.8789 C.ar      1 <0>         0.0543
     12 C11         0.3884   -0.8799    3.6171 C.ar      1 <0>        -0.0799
     13 N1          0.6744   -0.8367    6.1483 N.pl3     1 <0>        -0.4851
     14 C12         0.6618    0.2128    7.0192 C.2       1 <0>         0.4637
     15 N2          0.4707    1.3311    6.3681 N.2       1 <0>        -0.4888
     16 O1          0.8231    0.1121    8.3584 O.3       1 <0>        -0.4400
     17 C13         0.8611   -2.2486    6.4915 C.3       1 <0>         0.1313
     18 C14         2.2208   -2.4335    7.1684 C.3       1 <0>        -0.1669
     19 C15        -0.2486   -2.6923    7.4468 C.3       1 <0>        -0.1677
     20 C16         0.6583   -2.7684   -2.3225 C.1       1 <0>         0.2912
     21 N3          0.9201   -3.4067   -3.2250 N.1       1 <0>        -0.3927
     22 H1         -1.6138    1.5834    0.1594 H         1 <0>         0.0755
     23 H2         -2.7984    0.3242   -0.2643 H         1 <0>         0.0700
     24 H3         -2.2842    0.5294    1.4274 H         1 <0>         0.0737
     25 H4         -1.4285   -0.9019   -1.8219 H         1 <0>         0.1486
     26 H5         -0.1062    1.9597    1.8183 H         1 <0>         0.1388
     27 H6          0.0379    2.9528    4.0406 H         1 <0>         0.1394
     28 H7          0.4822   -1.9483    3.4897 H         1 <0>         0.1277
     29 H8          1.7431    0.1748    8.6496 H         1 <0>         0.4088
     30 H9          0.8220   -2.8513    5.5842 H         1 <0>         0.1018
     31 H10         2.3597   -3.4840    7.4237 H         1 <0>         0.0840
     32 H11         3.0114   -2.1174    6.4878 H         1 <0>         0.0654
     33 H12         2.2599   -1.8307    8.0757 H         1 <0>         0.0641
     34 H13        -1.2172   -2.5606    6.9646 H         1 <0>         0.0635
     35 H14        -0.1097   -3.7428    7.7021 H         1 <0>         0.0797
     36 H15        -0.2095   -2.0896    8.3541 H         1 <0>         0.0750
@<TRIPOS>BOND
     1    1    2 1
     2    1   22 1
     3    1   23 1
     4    1   24 1
     5    2    6 2
     6    2    3 1
     7    3    4 2
     8    3   25 1
     9    4    5 1
    10    4   20 1
    11    5    6 1
    12    6    7 1
    13    7   12 ar
    14    7    8 ar
    15    8    9 ar
    16    8   26 1
    17    9   10 ar
    18    9   27 1
    19   10   15 1
    20   10   11 ar
    21   11   12 ar
    22   11   13 1
    23   12   28 1
    24   13   14 1
    25   13   17 1
    26   14   15 2
    27   14   16 1
    28   16   29 1
    29   17   18 1
    30   17   19 1
    31   17   30 1
    32   18   31 1
    33   18   32 1
    34   18   33 1
    35   19   34 1
    36   19   35 1
    37   19   36 1
    38   20   21 3
@<TRIPOS>MOLECULE
CHEMBL235063
   49    50     0     0     0
SMALL
USER_CHARGES

@<TRIPOS>ATOM
      1 C1          0.9760   -0.5241    1.3159 C.3       1 <0>        -0.1516
      2 C2         -0.0007   -0.8035    0.1719 C.3       1 <0>        -0.0149
      3 C3          0.3486   -2.1421   -0.4816 C.3       1 <0>        -0.1358
      4 C4         -1.4273   -0.8614    0.7219 C.3       1 <0>        -0.1530
      5 C5         -1.5815    0.1624    1.8483 C.3       1 <0>         0.1071
      6 C6         -2.9729    0.0300    2.4709 C.3       1 <0>        -0.1252
      7 C7         -3.1176    1.0248    3.5936 C.ar      1 <0>        -0.0505
      8 C8         -2.5640    0.7513    4.8318 C.ar      1 <0>        -0.0852
      9 C9         -2.6921    1.6574    5.8638 C.ar      1 <0>        -0.0654
     10 C10        -3.3826    2.8537    5.6574 C.ar      1 <0>        -0.0110
     11 C11        -3.9391    3.1243    4.4060 C.ar      1 <0>        -0.0644
     12 C12        -3.7990    2.2110    3.3799 C.ar      1 <0>        -0.0230
     13 Cl1        -4.4837    2.5479    1.8206 Cl        1 <0>        -0.0475
     14 C13        -3.5196    3.7983    6.7248 C.1       1 <0>         0.2498
     15 N1         -3.6282    4.5477    7.5716 N.1       1 <0>        -0.4024
     16 C14        -1.4082    1.5733    1.2824 C.3       1 <0>         0.4617
     17 F1         -2.3074    1.7667    0.2283 F         1 <0>        -0.1668
     18 F2         -1.6592    2.5131    2.2878 F         1 <0>        -0.1718
     19 F3         -0.0994    1.7301    0.8136 F         1 <0>        -0.1535
     20 O1         -0.5880   -0.0754    2.8475 O.3       1 <0>        -0.5223
     21 C15         0.0981    0.2968   -0.8531 C.ar      1 <0>        -0.0619
     22 C16        -1.0273    0.6984   -1.5468 C.ar      1 <0>        -0.1358
     23 C17        -0.9369    1.7095   -2.4881 C.ar      1 <0>         0.0704
     24 C18         0.2813    2.3195   -2.7360 C.ar      1 <0>        -0.1235
     25 C19         1.4079    1.9200   -2.0440 C.ar      1 <0>        -0.1770
     26 C20         1.3177    0.9108   -1.0963 C.ar      1 <0>         0.1271
     27 O2          2.4246    0.5205   -0.4105 O.3       1 <0>        -0.2939
     28 C21         3.6468    1.1966   -0.7124 C.3       1 <0>         0.0153
     29 F4         -2.0381    2.1011   -3.1657 F         1 <0>        -0.1404
     30 H1          1.9978   -0.6661    0.9640 H         1 <0>         0.0669
     31 H2          0.8493    0.5026    1.6593 H         1 <0>         0.0927
     32 H3          0.7767   -1.2099    2.1394 H         1 <0>         0.0571
     33 H4          0.1932   -2.9481    0.2355 H         1 <0>         0.0611
     34 H5         -0.2907   -2.3002   -1.3502 H         1 <0>         0.0548
     35 H6          1.3923   -2.1316   -0.7958 H         1 <0>         0.0633
     36 H7         -2.1339   -0.6330   -0.0760 H         1 <0>         0.0942
     37 H8         -1.6271   -1.8605    1.1092 H         1 <0>         0.0981
     38 H9         -3.7305    0.2257    1.7121 H         1 <0>         0.1050
     39 H10        -3.1017   -0.9795    2.8611 H         1 <0>         0.1101
     40 H11        -2.0305   -0.1742    4.9907 H         1 <0>         0.1434
     41 H12        -2.2597    1.4421    6.8297 H         1 <0>         0.1411
     42 H13        -4.4745    4.0474    4.2399 H         1 <0>         0.1441
     43 H14        -0.6379   -0.9529    3.2507 H         1 <0>         0.3889
     44 H15        -1.9779    0.2230   -1.3549 H         1 <0>         0.1442
     45 H16         0.3505    3.1076   -3.4711 H         1 <0>         0.1351
     46 H17         2.3580    2.3956   -2.2378 H         1 <0>         0.1361
     47 H18         3.8898    1.0551   -1.7656 H         1 <0>         0.0540
     48 H19         3.5341    2.2608   -0.5054 H         1 <0>         0.0550
     49 H20         4.4489    0.7897   -0.0967 H         1 <0>         0.1003
@<TRIPOS>BOND
     1    1    2 1
     2    1   30 1
     3    1   31 1
     4    1   32 1
     5    2    3 1
     6    2    4 1
     7    2   21 1
     8    3   33 1
     9    3   34 1
    10    3   35 1
    11    4    5 1
    12    4   36 1
    13    4   37 1
    14    5    6 1
    15    5   16 1
    16    5   20 1
    17    6    7 1
    18    6   38 1
    19    6   39 1
    20    7   12 ar
    21    7    8 ar
    22    8    9 ar
    23    8   40 1
    24    9   10 ar
    25    9   41 1
    26   10   11 ar
    27   10   14 1
    28   11   12 ar
    29   11   42 1
    30   12   13 1
    31   14   15 3
    32   16   17 1
    33   16   18 1
    34   16   19 1
    35   20   43 1
    36   21   26 ar
    37   21   22 ar
    38   22   23 ar
    39   22   44 1
    40   23   24 ar
    41   23   29 1
    42   24   25 ar
    43   24   45 1
    44   25   26 ar
    45   25   46 1
    46   26   27 1
    47   27   28 1
    48   28   47 1
    49   28   48 1
    50   28   49 1
@<TRIPOS>MOLECULE
CHEMBL235063__1
   49    50     0     0     0
SMALL
USER_CHARGES

@<TRIPOS>ATOM
      1 C1          0.1892    0.4783   -1.5640 C.3       1 <0>        -0.1375
      2 C2         -0.1034    0.6010   -0.0672 C.3       1 <0>        -0.0132
      3 C3         -0.1633    2.0797    0.3212 C.3       1 <0>        -0.1575
      4 C4         -1.4455   -0.0633    0.2462 C.3       1 <0>        -0.1570
      5 C5         -2.0817    0.6195    1.4586 C.3       1 <0>         0.1044
      6 C6         -3.4712    0.0285    1.7059 C.3       1 <0>        -0.1234
      7 C7         -4.0979    0.7010    2.9001 C.ar      1 <0>        -0.0520
      8 C8         -3.9852    0.1247    4.1529 C.ar      1 <0>        -0.0901
      9 C9         -4.5559    0.7350    5.2504 C.ar      1 <0>        -0.0635
     10 C10        -5.2489    1.9375    5.0956 C.ar      1 <0>        -0.0087
     11 C11        -5.3594    2.5143    3.8292 C.ar      1 <0>        -0.0624
     12 C12        -4.7789    1.8957    2.7396 C.ar      1 <0>        -0.0155
     13 Cl1        -4.9085    2.6143    1.1646 Cl        1 <0>        -0.0519
     14 C13        -5.8441    2.5758    6.2309 C.1       1 <0>         0.2494
     15 N1         -6.3162    3.0821    7.1316 N.1       1 <0>        -0.4008
     16 C14        -1.2040    0.3919    2.6910 C.3       1 <0>         0.4611
     17 F1          0.0819    0.8849    2.4451 F         1 <0>        -0.1492
     18 F2         -1.7580    1.0606    3.7879 F         1 <0>        -0.1678
     19 F3         -1.1335   -0.9778    2.9668 F         1 <0>        -0.1719
     20 O1         -2.1981    2.0217    1.2090 O.3       1 <0>        -0.5206
     21 C15         0.9893   -0.0801    0.7157 C.ar      1 <0>        -0.0476
     22 C16         0.7140   -1.2310    1.4290 C.ar      1 <0>        -0.1586
     23 C17         1.7177   -1.8573    2.1480 C.ar      1 <0>         0.0741
     24 C18         2.9986   -1.3311    2.1537 C.ar      1 <0>        -0.1271
     25 C19         3.2766   -0.1807    1.4416 C.ar      1 <0>        -0.1714
     26 C20         2.2731    0.4447    0.7160 C.ar      1 <0>         0.1174
     27 O2          2.5466    1.5739    0.0101 O.3       1 <0>        -0.3014
     28 C21         3.8903    2.0580    0.0557 C.3       1 <0>         0.0210
     29 F4          1.4472   -2.9825    2.8450 F         1 <0>        -0.1398
     30 H1          1.0996    1.0282   -1.8025 H         1 <0>         0.0698
     31 H2          0.3206   -0.5721   -1.8235 H         1 <0>         0.0536
     32 H3         -0.6442    0.8915   -2.1321 H         1 <0>         0.0597
     33 H4         -0.9854    2.5614   -0.2081 H         1 <0>         0.0575
     34 H5         -0.3224    2.1669    1.3960 H         1 <0>         0.0955
     35 H6          0.7754    2.5643    0.0524 H         1 <0>         0.0609
     36 H7         -2.1080    0.0325   -0.6140 H         1 <0>         0.0990
     37 H8         -1.2858   -1.1189    0.4660 H         1 <0>         0.0961
     38 H9         -4.0965    0.1906    0.8279 H         1 <0>         0.1096
     39 H10        -3.3824   -1.0411    1.8963 H         1 <0>         0.1055
     40 H11        -3.4494   -0.8054    4.2718 H         1 <0>         0.1424
     41 H12        -4.4672    0.2835    6.2275 H         1 <0>         0.1421
     42 H13        -5.8943    3.4440    3.7025 H         1 <0>         0.1455
     43 H14        -2.7422    2.2405    0.4401 H         1 <0>         0.3853
     44 H15        -0.2847   -1.6420    1.4260 H         1 <0>         0.1556
     45 H16         3.7805   -1.8203    2.7156 H         1 <0>         0.1355
     46 H17         4.2756    0.2297    1.4465 H         1 <0>         0.1366
     47 H18         4.1600    2.2849    1.0872 H         1 <0>         0.0554
     48 H19         4.5643    1.2966   -0.3369 H         1 <0>         0.0549
     49 H20         3.9717    2.9616   -0.5483 H         1 <0>         0.1010
@<TRIPOS>BOND
     1    1    2 1
     2    1   30 1
     3    1   31 1
     4    1   32 1
     5    2    3 1
     6    2    4 1
     7    2   21 1
     8    3   33 1
     9    3   34 1
    10    3   35 1
    11    4    5 1
    12    4   36 1
    13    4   37 1
    14    5    6 1
    15    5   16 1
    16    5   20 1
    17    6    7 1
    18    6   38 1
    19    6   39 1
    20    7   12 ar
    21    7    8 ar
    22    8    9 ar
    23    8   40 1
    24    9   10 ar
    25    9   41 1
    26   10   11 ar
    27   10   14 1
    28   11   12 ar
    29   11   42 1
    30   12   13 1
    31   14   15 3
    32   16   17 1
    33   16   18 1
    34   16   19 1
    35   20   43 1
    36   21   26 ar
    37   21   22 ar
    38   22   23 ar
    39   22   44 1
    40   23   24 ar
    41   23   29 1
    42   24   25 ar
    43   24   45 1
    44   25   26 ar
    45   25   46 1
    46   26   27 1
    47   27   28 1
    48   28   47 1
    49   28   48 1
    50   28   49 1
@<TRIPOS>MOLECULE
CHEMBL50849
   52    54     0     0     0
SMALL
USER_CHARGES

@<TRIPOS>ATOM
      1 C1         -0.7532    1.1571   -0.7948 C.3       1 <0>        -0.1204
      2 C2         -0.5803   -0.3194   -0.5474 C.2       1 <0>        -0.1282
      3 C3         -0.4953   -1.1067   -1.5784 C.2       1 <0>        -0.1058
      4 C4         -0.3328   -2.5955   -1.4257 C.3       1 <0>        -0.0805
      5 C5         -1.2345   -3.5036   -2.2608 C.3       1 <0>        -0.1689
      6 C6          0.2523   -3.3773   -2.6007 C.3       1 <0>        -0.1590
      7 C7          0.0292   -3.0602   -0.0100 C.3       1 <0>        -0.0297
      8 C8         -0.8548   -2.2804    0.9740 C.3       1 <0>        -0.0544
      9 C9         -0.5104   -0.7933    0.8730 C.3       1 <0>        -0.0732
     10 C10        -0.5908   -2.7706    2.3991 C.3       1 <0>        -0.1464
     11 C11        -2.3278   -2.4950    0.6204 C.3       1 <0>        -0.1390
     12 C12         1.5040   -2.7663    0.2717 C.3       1 <0>        -0.0786
     13 C13         2.3659   -3.6134   -0.6286 C.ar      1 <0>        -0.0179
     14 C14         2.6110   -4.9345   -0.3069 C.ar      1 <0>        -0.1944
     15 C15         3.4036   -5.7144   -1.1353 C.ar      1 <0>         0.1643
     16 C16         3.9510   -5.1677   -2.2879 C.ar      1 <0>        -0.1198
     17 C17         3.7057   -3.8465   -2.6093 C.ar      1 <0>        -0.0533
     18 C18         2.9083   -3.0683   -1.7828 C.ar      1 <0>         0.0670
     19 O1          2.6626   -1.7694   -2.1017 O.3       1 <0>        -0.2776
     20 C19         3.4575   -0.8283   -1.5684 C.2       1 <0>         0.4539
     21 O2          4.4182   -1.1509   -0.9103 O.2       1 <0>        -0.4962
     22 C20         3.1518    0.6306   -1.7904 C.3       1 <0>        -0.1457
     23 Br1         5.0325   -6.2307   -3.4175 Br        1 <0>        -0.0255
     24 O3          3.6451   -7.0145   -0.8184 O.3       1 <0>        -0.2990
     25 C21         3.0504   -7.5107    0.3825 C.3       1 <0>         0.0230
     26 H1          0.2259    1.6307   -0.8655 H         1 <0>         0.0631
     27 H2         -1.2980    1.3080   -1.7268 H         1 <0>         0.0615
     28 H3         -1.3127    1.6004    0.0289 H         1 <0>         0.0608
     29 H4         -0.5429   -0.6817   -2.5701 H         1 <0>         0.1074
     30 H5         -1.5695   -4.4360   -1.8063 H         1 <0>         0.0920
     31 H6         -1.9469   -3.0252   -2.9329 H         1 <0>         0.0932
     32 H7          0.5180   -2.8159   -3.4964 H         1 <0>         0.0957
     33 H8          0.8953   -4.2266   -2.3699 H         1 <0>         0.0921
     34 H9         -0.1612   -4.1289    0.0885 H         1 <0>         0.0751
     35 H10         0.4972   -0.6295    1.2552 H         1 <0>         0.0706
     36 H11        -1.2172   -0.2227    1.4754 H         1 <0>         0.0705
     37 H12         0.4292   -2.5166    2.6876 H         1 <0>         0.0562
     38 H13        -1.2917   -2.2926    3.0834 H         1 <0>         0.0584
     39 H14        -0.7218   -3.8519    2.4415 H         1 <0>         0.0565
     40 H15        -2.5655   -3.5569    0.6827 H         1 <0>         0.0517
     41 H16        -2.9538   -1.9409    1.3198 H         1 <0>         0.0523
     42 H17        -2.5135   -2.1400   -0.3934 H         1 <0>         0.0654
     43 H18         1.7070   -1.7122    0.0824 H         1 <0>         0.0784
     44 H19         1.7283   -2.9982    1.3128 H         1 <0>         0.0819
     45 H20         2.1854   -5.3597    0.5900 H         1 <0>         0.1433
     46 H21         4.1317   -3.4208   -3.5058 H         1 <0>         0.1448
     47 H22         2.2550    0.7248   -2.4027 H         1 <0>         0.0938
     48 H23         2.9882    1.1179   -0.8292 H         1 <0>         0.1071
     49 H24         3.9910    1.1043   -2.2997 H         1 <0>         0.1077
     50 H25         3.4095   -6.9305    1.2325 H         1 <0>         0.0594
     51 H26         1.9661   -7.4224    0.3144 H         1 <0>         0.0592
     52 H27         3.3219   -8.5578    0.5167 H         1 <0>         0.1067
@<TRIPOS>BOND
     1    1    2 1
     2    1   26 1
     3    1   27 1
     4    1   28 1
     5    2    9 1
     6    2    3 2
     7    3    4 1
     8    3   29 1
     9    4    6 1
    10    4    5 1
    11    4    7 1
    12    5    6 1
    13    5   30 1
    14    5   31 1
    15    6   32 1
    16    6   33 1
    17    7    8 1
    18    7   12 1
    19    7   34 1
    20    8    9 1
    21    8   10 1
    22    8   11 1
    23    9   35 1
    24    9   36 1
    25   10   37 1
    26   10   38 1
    27   10   39 1
    28   11   40 1
    29   11   41 1
    30   11   42 1
    31   12   13 1
    32   12   43 1
    33   12   44 1
    34   13   18 ar
    35   13   14 ar
    36   14   15 ar
    37   14   45 1
    38   15   16 ar
    39   15   24 1
    40   16   17 ar
    41   16   23 1
    42   17   18 ar
    43   17   46 1
    44   18   19 1
    45   19   20 1
    46   20   21 2
    47   20   22 1
    48   22   47 1
    49   22   48 1
    50   22   49 1
    51   24   25 1
    52   25   50 1
    53   25   51 1
    54   25   52 1
@<TRIPOS>MOLECULE
CHEMBL50849__1
   52    54     0     0     0
SMALL
USER_CHARGES

@<TRIPOS>ATOM
      1 C1          0.9501    1.0959    0.2091 C.3       1 <0>        -0.1222
      2 C2          0.6860   -0.3875    0.1846 C.2       1 <0>        -0.1168
      3 C3          0.6896   -0.9908   -0.9669 C.2       1 <0>        -0.1233
      4 C4          0.4470   -2.4718   -1.0851 C.3       1 <0>        -0.0833
      5 C5         -0.0292   -3.0153   -2.4312 C.3       1 <0>        -0.1675
      6 C6          1.4007   -3.2862   -1.9581 C.3       1 <0>        -0.1641
      7 C7         -0.0981   -3.1367    0.1846 C.3       1 <0>        -0.0306
      8 C8          0.6966   -2.5823    1.3758 C.3       1 <0>        -0.0542
      9 C9          0.4404   -1.0821    1.4902 C.3       1 <0>        -0.0755
     10 C10         2.1905   -2.8266    1.1534 C.3       1 <0>        -0.1397
     11 C11         0.2466   -3.2798    2.6610 C.3       1 <0>        -0.1471
     12 C12        -1.5820   -2.8024    0.3496 C.3       1 <0>        -0.0777
     13 C13        -2.3658   -3.4272   -0.7757 C.ar      1 <0>        -0.0149
     14 C14        -2.7943   -2.6493   -1.8340 C.ar      1 <0>        -0.1789
     15 C15        -3.5151   -3.2238   -2.8698 C.ar      1 <0>         0.1645
     16 C16        -3.8062   -4.5809   -2.8434 C.ar      1 <0>        -0.1207
     17 C17        -3.3775   -5.3586   -1.7850 C.ar      1 <0>        -0.0498
     18 C18        -2.6518   -4.7840   -0.7516 C.ar      1 <0>         0.0487
     19 O1         -2.2253   -5.5504    0.2877 O.3       1 <0>        -0.2870
     20 C19        -2.9533   -5.5442    1.4156 C.2       1 <0>         0.4532
     21 O2         -4.0021   -4.9455    1.4544 O.2       1 <0>        -0.4931
     22 C20        -2.4624   -6.2841    2.6332 C.3       1 <0>        -0.1466
     23 Br1        -4.7898   -5.3648   -4.2555 Br        1 <0>        -0.0252
     24 O3         -3.9373   -2.4580   -3.9111 O.3       1 <0>        -0.2984
     25 C21        -3.6026   -1.0693   -3.8726 C.3       1 <0>         0.0231
     26 H1          2.0211    1.2727    0.3082 H         1 <0>         0.0663
     27 H2          0.5921    1.5441   -0.7178 H         1 <0>         0.0607
     28 H3          0.4281    1.5440    1.0546 H         1 <0>         0.0618
     29 H4          0.8710   -0.4144   -1.8620 H         1 <0>         0.1066
     30 H5         -0.7305   -3.8496   -2.4176 H         1 <0>         0.0965
     31 H6         -0.1638   -2.3009   -3.2434 H         1 <0>         0.0904
     32 H7          2.2068   -2.7500   -2.4589 H         1 <0>         0.0933
     33 H8          1.6401   -4.2988   -1.6331 H         1 <0>         0.0953
     34 H9          0.0340   -4.2168    0.1224 H         1 <0>         0.0828
     35 H10         1.1012   -0.6619    2.2484 H         1 <0>         0.0723
     36 H11        -0.5949   -0.9218    1.7912 H         1 <0>         0.0731
     37 H12         2.5088   -2.3241    0.2400 H         1 <0>         0.0642
     38 H13         2.7530   -2.4325    1.9997 H         1 <0>         0.0524
     39 H14         2.3740   -3.8971    1.0620 H         1 <0>         0.0532
     40 H15         0.4959   -4.3395    2.6057 H         1 <0>         0.0593
     41 H16         0.7545   -2.8312    3.5148 H         1 <0>         0.0590
     42 H17        -0.8310   -3.1657    2.7782 H         1 <0>         0.0540
     43 H18        -1.9388   -3.1940    1.3022 H         1 <0>         0.0756
     44 H19        -1.7153   -1.7208    0.3285 H         1 <0>         0.0831
     45 H20        -2.5682   -1.5934   -1.8543 H         1 <0>         0.1440
     46 H21        -3.6040   -6.4143   -1.7640 H         1 <0>         0.1456
     47 H22        -1.5073   -6.7592    2.4092 H         1 <0>         0.0947
     48 H23        -2.3348   -5.5826    3.4577 H         1 <0>         0.1087
     49 H24        -3.1902   -7.0456    2.9135 H         1 <0>         0.1091
     50 H25        -4.0356   -0.6158   -2.9810 H         1 <0>         0.0591
     51 H26        -2.5186   -0.9573   -3.8472 H         1 <0>         0.0598
     52 H27        -3.9981   -0.5754   -4.7601 H         1 <0>         0.1062
@<TRIPOS>BOND
     1    1    2 1
     2    1   26 1
     3    1   27 1
     4    1   28 1
     5    2    9 1
     6    2    3 2
     7    3    4 1
     8    3   29 1
     9    4    6 1
    10    4    5 1
    11    4    7 1
    12    5    6 1
    13    5   30 1
    14    5   31 1
    15    6   32 1
    16    6   33 1
    17    7    8 1
    18    7   12 1
    19    7   34 1
    20    8    9 1
    21    8   10 1
    22    8   11 1
    23    9   35 1
    24    9   36 1
    25   10   37 1
    26   10   38 1
    27   10   39 1
    28   11   40 1
    29   11   41 1
    30   11   42 1
    31   12   13 1
    32   12   43 1
    33   12   44 1
    34   13   18 ar
    35   13   14 ar
    36   14   15 ar
    37   14   45 1
    38   15   16 ar
    39   15   24 1
    40   16   17 ar
    41   16   23 1
    42   17   18 ar
    43   17   46 1
    44   18   19 1
    45   19   20 1
    46   20   21 2
    47   20   22 1
    48   22   47 1
    49   22   48 1
    50   22   49 1
    51   24   25 1
    52   25   50 1
    53   25   51 1
    54   25   52 1
@<TRIPOS>MOLECULE
CHEMBL299828
   44    45     0     0     0
SMALL
USER_CHARGES

@<TRIPOS>ATOM
      1 C1         -0.9403    0.7318   -0.3773 C.3       1 <0>        -0.1408
      2 C2         -0.3631   -0.6039    0.0147 C.2       1 <0>        -0.1023
      3 C3         -0.3812   -1.5810   -0.8747 C.2       1 <0>        -0.1300
      4 C4          0.1624   -2.9111   -0.5394 C.2       1 <0>        -0.0891
      5 C5         -0.0442   -3.9579   -1.3311 C.2       1 <0>        -0.1861
      6 C6          0.9649   -3.0412    0.7392 C.3       1 <0>        -0.0769
      7 C7          0.2377   -2.2256    1.8179 C.3       1 <0>        -0.0540
      8 C8          0.2086   -0.7563    1.3927 C.3       1 <0>        -0.0289
      9 C9         -0.6511    0.0328    2.3823 C.3       1 <0>        -0.0787
     10 C10        -0.1093    1.4330    2.5130 C.ar      1 <0>        -0.0455
     11 C11        -0.8176    2.4991    1.9923 C.ar      1 <0>        -0.1914
     12 C12        -0.3195    3.7873    2.1124 C.ar      1 <0>         0.1520
     13 C13         0.8908    4.0062    2.7556 C.ar      1 <0>        -0.1173
     14 C14         1.5989    2.9399    3.2761 C.ar      1 <0>        -0.0749
     15 C15         1.0972    1.6518    3.1607 C.ar      1 <0>         0.0755
     16 O1          1.7912    0.6030    3.6777 O.3       1 <0>        -0.4830
     17 Br1         1.5709    5.7631    2.9190 Br        1 <0>        -0.0303
     18 O2         -1.0165    4.8365    1.5995 O.3       1 <0>        -0.3009
     19 C16        -2.2541    4.5379    0.9503 C.3       1 <0>         0.0226
     20 C17         0.9821   -2.3575    3.1480 C.3       1 <0>        -0.1431
     21 C18        -1.1924   -2.7462    1.9759 C.3       1 <0>        -0.1441
     22 H1         -0.1399    1.3862   -0.7225 H         1 <0>         0.0670
     23 H2         -1.6668    0.5929   -1.1779 H         1 <0>         0.0618
     24 H3         -1.4316    1.1825    0.4851 H         1 <0>         0.0779
     25 H4         -0.7977   -1.4046   -1.8554 H         1 <0>         0.1139
     26 H5         -0.6188   -3.8438   -2.2384 H         1 <0>         0.0988
     27 H6          0.3626   -4.9231   -1.0674 H         1 <0>         0.1009
     28 H7          1.0187   -4.0879    1.0386 H         1 <0>         0.0739
     29 H8          1.9693   -2.6453    0.5888 H         1 <0>         0.0744
     30 H9          1.2228   -0.3572    1.4048 H         1 <0>         0.0776
     31 H10        -1.6782    0.0731    2.0197 H         1 <0>         0.0780
     32 H11        -0.6282   -0.4579    3.3553 H         1 <0>         0.0946
     33 H12        -1.7592    2.3287    1.4915 H         1 <0>         0.1457
     34 H13         2.5409    3.1098    3.7764 H         1 <0>         0.1451
     35 H14         2.4206    0.2053    3.0607 H         1 <0>         0.3843
     36 H15        -2.0711    3.8688    0.1095 H         1 <0>         0.0585
     37 H16        -2.9286    4.0561    1.6580 H         1 <0>         0.0587
     38 H17        -2.7064    5.4612    0.5882 H         1 <0>         0.1061
     39 H18         1.9992   -1.9824    3.0339 H         1 <0>         0.0553
     40 H19         0.4649   -1.7782    3.9129 H         1 <0>         0.0662
     41 H20         1.0127   -3.4058    3.4449 H         1 <0>         0.0565
     42 H21        -1.1667   -3.7954    2.2702 H         1 <0>         0.0548
     43 H22        -1.7075   -2.1665    2.7418 H         1 <0>         0.0565
     44 H23        -1.7217   -2.6475    1.0282 H         1 <0>         0.0605
@<TRIPOS>BOND
     1    1    2 1
     2    1   22 1
     3    1   23 1
     4    1   24 1
     5    2    8 1
     6    2    3 2
     7    3    4 1
     8    3   25 1
     9    4    5 2
    10    4    6 1
    11    5   26 1
    12    5   27 1
    13    6    7 1
    14    6   28 1
    15    6   29 1
    16    7    8 1
    17    7   20 1
    18    7   21 1
    19    8    9 1
    20    8   30 1
    21    9   10 1
    22    9   31 1
    23    9   32 1
    24   10   15 ar
    25   10   11 ar
    26   11   12 ar
    27   11   33 1
    28   12   13 ar
    29   12   18 1
    30   13   14 ar
    31   13   17 1
    32   14   15 ar
    33   14   34 1
    34   15   16 1
    35   16   35 1
    36   18   19 1
    37   19   36 1
    38   19   37 1
    39   19   38 1
    40   20   39 1
    41   20   40 1
    42   20   41 1
    43   21   42 1
    44   21   43 1
    45   21   44 1
@<TRIPOS>MOLECULE
CHEMBL299828__1
   44    45     0     0     0
SMALL
USER_CHARGES

@<TRIPOS>ATOM
      1 C1         -0.7960    1.4700    1.8691 C.3       1 <0>        -0.1245
      2 C2         -0.7122    0.0538    1.3608 C.2       1 <0>        -0.1019
      3 C3         -1.3807   -0.2605    0.2651 C.2       1 <0>        -0.1289
      4 C4         -1.3404   -1.6348   -0.2701 C.2       1 <0>        -0.0883
      5 C5         -2.1715   -2.0230   -1.2313 C.2       1 <0>        -0.1843
      6 C6         -0.3179   -2.5878    0.3145 C.3       1 <0>        -0.0789
      7 C7         -0.3048   -2.3654    1.8337 C.3       1 <0>        -0.0549
      8 C8          0.1306   -0.9270    2.1202 C.3       1 <0>        -0.0326
      9 C9          1.5948   -0.7507    1.7130 C.3       1 <0>        -0.0826
     10 C10         2.0574    0.6336    2.0884 C.ar      1 <0>        -0.0423
     11 C11         2.2517    0.9603    3.4169 C.ar      1 <0>        -0.1887
     12 C12         2.6773    2.2337    3.7626 C.ar      1 <0>         0.1523
     13 C13         2.9082    3.1804    2.7742 C.ar      1 <0>        -0.1170
     14 C14         2.7137    2.8534    1.4458 C.ar      1 <0>        -0.0748
     15 C15         2.2934    1.5774    1.1002 C.ar      1 <0>         0.0776
     16 O1          2.1073    1.2537   -0.2073 O.3       1 <0>        -0.4857
     17 Br1         3.4880    4.9175    3.2454 Br        1 <0>        -0.0306
     18 O2          2.8681    2.5553    5.0702 O.3       1 <0>        -0.3015
     19 C16         2.6110    1.5322    6.0341 C.3       1 <0>         0.0240
     20 C17         0.6819   -3.3366    2.4848 C.3       1 <0>        -0.1487
     21 C18        -1.7071   -2.6028    2.3979 C.3       1 <0>        -0.1413
     22 H1         -0.0068    2.0673    1.4124 H         1 <0>         0.0654
     23 H2         -1.7670    1.8921    1.6103 H         1 <0>         0.0643
     24 H3         -0.6747    1.4750    2.9524 H         1 <0>         0.0629
     25 H4         -1.9617    0.4951   -0.2428 H         1 <0>         0.1149
     26 H5         -2.8930   -1.3279   -1.6347 H         1 <0>         0.0991
     27 H6         -2.1257   -3.0337   -1.6093 H         1 <0>         0.1007
     28 H7         -0.6004   -3.6169    0.0926 H         1 <0>         0.0725
     29 H8          0.6674   -2.3749   -0.1002 H         1 <0>         0.0786
     30 H9          0.0317   -0.7314    3.1879 H         1 <0>         0.0786
     31 H10         2.2069   -1.4906    2.2286 H         1 <0>         0.0882
     32 H11         1.6913   -0.8863    0.6358 H         1 <0>         0.0891
     33 H12         2.0717    0.2238    4.1859 H         1 <0>         0.1396
     34 H13         2.8930    3.5898    0.6765 H         1 <0>         0.1446
     35 H14         1.1935    1.3471   -0.5095 H         1 <0>         0.3862
     36 H15         1.5707    1.2155    5.9592 H         1 <0>         0.0579
     37 H16         3.2645    0.6809    5.8435 H         1 <0>         0.0585
     38 H17         2.8016    1.9197    7.0349 H         1 <0>         0.1053
     39 H18         1.6807   -3.1629    2.0842 H         1 <0>         0.0615
     40 H19         0.6903   -3.1777    3.5631 H         1 <0>         0.0571
     41 H20         0.3779   -4.3613    2.2709 H         1 <0>         0.0589
     42 H21        -2.0164   -3.6258    2.1838 H         1 <0>         0.0556
     43 H22        -1.6964   -2.4445    3.4763 H         1 <0>         0.0529
     44 H23        -2.4073   -1.9071    1.9354 H         1 <0>         0.0612
@<TRIPOS>BOND
     1    1    2 1
     2    1   22 1
     3    1   23 1
     4    1   24 1
     5    2    8 1
     6    2    3 2
     7    3    4 1
     8    3   25 1
     9    4    5 2
    10    4    6 1
    11    5   26 1
    12    5   27 1
    13    6    7 1
    14    6   28 1
    15    6   29 1
    16    7    8 1
    17    7   20 1
    18    7   21 1
    19    8    9 1
    20    8   30 1
    21    9   10 1
    22    9   31 1
    23    9   32 1
    24   10   15 ar
    25   10   11 ar
    26   11   12 ar
    27   11   33 1
    28   12   13 ar
    29   12   18 1
    30   13   14 ar
    31   13   17 1
    32   14   15 ar
    33   14   34 1
    34   15   16 1
    35   16   35 1
    36   18   19 1
    37   19   36 1
    38   19   37 1
    39   19   38 1
    40   20   39 1
    41   20   40 1
    42   20   41 1
    43   21   42 1
    44   21   43 1
    45   21   44 1
@<TRIPOS>MOLECULE
CHEMBL556891
   42    44     0     0     0
SMALL
USER_CHARGES

@<TRIPOS>ATOM
      1 C1          0.4327    1.2296    0.2410 C.3       1 <0>        -0.1713
      2 C2          0.3501   -0.2718   -0.0418 C.3       1 <0>         0.2570
      3 C3          1.3280   -1.0038    0.8407 C.2       1 <0>         0.1621
      4 N1          2.6347   -0.9927    0.7383 N.2       1 <0>        -0.2790
      5 N2          3.1134   -1.7386    1.6734 N.2       1 <0>        -0.0720
      6 N3          2.1461   -2.2253    2.3696 N.2       1 <0>        -0.0930
      7 N4          1.0295   -1.7911    1.8908 N.pl3     1 <0>        -0.3055
      8 C4         -0.3115   -2.1000    2.3933 C.3       1 <0>         0.0748
      9 N5          0.6781   -0.5227   -1.4474 N.pl3     1 <0>        -0.6489
     10 C5         -0.3410   -1.0587   -2.3530 C.3       1 <0>         0.1768
     11 C6         -1.1803    0.0719   -2.8902 C.ar      1 <0>        -0.1045
     12 C7         -2.4052    0.3568   -2.3163 C.ar      1 <0>        -0.0966
     13 C8         -3.1750    1.3937   -2.8089 C.ar      1 <0>        -0.1160
     14 C9         -2.7205    2.1465   -3.8759 C.ar      1 <0>        -0.1024
     15 C10        -1.4962    1.8626   -4.4504 C.ar      1 <0>        -0.1107
     16 C11        -0.7225    0.8283   -3.9541 C.ar      1 <0>        -0.0191
     17 Cl1         0.8186    0.4753   -4.6711 Cl        1 <0>        -0.0576
     18 C12         1.9582   -0.2520   -1.9223 C.ar      1 <0>         0.2329
     19 C13         2.7984   -1.2995   -2.2900 C.ar      1 <0>        -0.1139
     20 C14         4.0646   -1.0365   -2.7600 C.ar      1 <0>        -0.0436
     21 C15         4.5081    0.2853   -2.8686 C.ar      1 <0>        -0.0286
     22 C16         3.6615    1.3361   -2.4984 C.ar      1 <0>         0.0197
     23 C17         2.3926    1.0647   -2.0338 C.ar      1 <0>        -0.1148
     24 Cl2         4.2062    2.9792   -2.6302 Cl        1 <0>        -0.0529
     25 C18         5.8253    0.5627   -3.3569 C.1       1 <0>         0.2502
     26 N6          6.8703    0.7828   -3.7443 N.1       1 <0>        -0.4019
     27 H1          1.4673    1.5602    0.1489 H         1 <0>         0.0760
     28 H2         -0.1863    1.7690   -0.4760 H         1 <0>         0.0811
     29 H3          0.0761    1.4292    1.2515 H         1 <0>         0.0682
     30 H4         -0.6603   -0.6252    0.1642 H         1 <0>         0.1078
     31 H5         -0.6903   -2.9916    1.8937 H         1 <0>         0.0994
     32 H6         -0.2649   -2.2777    3.4677 H         1 <0>         0.1100
     33 H7         -0.9771   -1.2605    2.1924 H         1 <0>         0.1043
     34 H8          0.1442   -1.5761   -3.1807 H         1 <0>         0.0923
     35 H9         -0.9776   -1.7578   -1.8107 H         1 <0>         0.0836
     36 H10        -2.7608   -0.2311   -1.4831 H         1 <0>         0.1289
     37 H11        -4.1321    1.6157   -2.3605 H         1 <0>         0.1288
     38 H12        -3.3226    2.9564   -4.2606 H         1 <0>         0.1313
     39 H13        -1.1414    2.4505   -5.2841 H         1 <0>         0.1332
     40 H14         2.4559   -2.3203   -2.2057 H         1 <0>         0.1313
     41 H15         4.7154   -1.8500   -3.0445 H         1 <0>         0.1408
     42 H16         1.7365    1.8750   -1.7518 H         1 <0>         0.1419
@<TRIPOS>BOND
     1    1    2 1
     2    1   27 1
     3    1   28 1
     4    1   29 1
     5    2    3 1
     6    2    9 1
     7    2   30 1
     8    3    7 1
     9    3    4 2
    10    4    5 1
    11    5    6 2
    12    6    7 1
    13    7    8 1
    14    8   31 1
    15    8   32 1
    16    8   33 1
    17    9   10 1
    18    9   18 1
    19   10   11 1
    20   10   34 1
    21   10   35 1
    22   11   16 ar
    23   11   12 ar
    24   12   13 ar
    25   12   36 1
    26   13   14 ar
    27   13   37 1
    28   14   15 ar
    29   14   38 1
    30   15   16 ar
    31   15   39 1
    32   16   17 1
    33   18   23 ar
    34   18   19 ar
    35   19   20 ar
    36   19   40 1
    37   20   21 ar
    38   20   41 1
    39   21   22 ar
    40   21   25 1
    41   22   23 ar
    42   22   24 1
    43   23   42 1
    44   25   26 3
@<TRIPOS>MOLECULE
CHEMBL556891__1
   42    44     0     0     0
SMALL
USER_CHARGES

@<TRIPOS>ATOM
      1 C1          0.6800    0.6604    0.9445 C.3       1 <0>        -0.1642
      2 C2          0.2583   -0.5605    0.1243 C.3       1 <0>         0.2557
      3 C3          0.7331   -1.8152    0.8109 C.2       1 <0>         0.1646
      4 N1          0.2301   -2.3518    1.8958 N.2       1 <0>        -0.2850
      5 N2          0.9083   -3.4134    2.1659 N.2       1 <0>        -0.0747
      6 N3          1.8310   -3.5679    1.2814 N.2       1 <0>        -0.0943
      7 N4          1.7523   -2.6055    0.4257 N.pl3     1 <0>        -0.3047
      8 C4          2.6128   -2.4081   -0.7433 C.3       1 <0>         0.0758
      9 N5         -1.2017   -0.5901    0.0080 N.pl3     1 <0>        -0.6502
     10 C5         -1.8296   -0.6798   -1.3126 C.3       1 <0>         0.1761
     11 C6         -1.8813   -2.1218   -1.7474 C.ar      1 <0>        -0.1041
     12 C7         -0.8968   -2.6303   -2.5739 C.ar      1 <0>        -0.1030
     13 C8         -0.9440   -3.9529   -2.9727 C.ar      1 <0>        -0.1156
     14 C9         -1.9758   -4.7680   -2.5453 C.ar      1 <0>        -0.1036
     15 C10        -2.9606   -4.2607   -1.7191 C.ar      1 <0>        -0.1090
     16 C11        -2.9108   -2.9383   -1.3149 C.ar      1 <0>        -0.0233
     17 Cl1        -4.1439   -2.3021   -0.2716 Cl        1 <0>        -0.0544
     18 C12        -1.9924   -0.5330    1.1521 C.ar      1 <0>         0.2007
     19 C13        -2.4113   -1.7103    1.7661 C.ar      1 <0>        -0.0611
     20 C14        -3.1930   -1.6586    2.8973 C.ar      1 <0>        -0.0617
     21 C15        -3.5672   -0.4213    3.4310 C.ar      1 <0>        -0.0145
     22 C16        -3.1447    0.7602    2.8119 C.ar      1 <0>         0.0002
     23 C17        -2.3572    0.7001    1.6824 C.ar      1 <0>        -0.1101
     24 Cl2        -3.6063    2.2993    3.4692 Cl        1 <0>        -0.0532
     25 C18        -4.3810   -0.3638    4.6079 C.1       1 <0>         0.2485
     26 N6         -5.0266   -0.3181    5.5415 N.1       1 <0>        -0.3987
     27 H1          1.7659    0.6790    1.0363 H         1 <0>         0.0682
     28 H2          0.3419    1.5682    0.4448 H         1 <0>         0.0821
     29 H3          0.2324    0.6037    1.9368 H         1 <0>         0.0751
     30 H4          0.7009   -0.5007   -0.8700 H         1 <0>         0.1065
     31 H5          3.4740   -1.8019   -0.4623 H         1 <0>         0.0999
     32 H6          2.9540   -3.3758   -1.1109 H         1 <0>         0.1087
     33 H7          2.0506   -1.8995   -1.5266 H         1 <0>         0.1016
     34 H8         -2.8421   -0.2792   -1.2615 H         1 <0>         0.0947
     35 H9         -1.2470   -0.1041   -2.0318 H         1 <0>         0.0875
     36 H10        -0.0908   -1.9940   -2.9083 H         1 <0>         0.1272
     37 H11        -0.1748   -4.3496   -3.6187 H         1 <0>         0.1284
     38 H12        -2.0124   -5.8012   -2.8576 H         1 <0>         0.1318
     39 H13        -3.7667   -4.8974   -1.3856 H         1 <0>         0.1340
     40 H14        -2.1225   -2.6657    1.3535 H         1 <0>         0.1331
     41 H15        -3.5175   -2.5726    3.3723 H         1 <0>         0.1405
     42 H16        -2.0267    1.6113    1.2060 H         1 <0>         0.1444
@<TRIPOS>BOND
     1    1    2 1
     2    1   27 1
     3    1   28 1
     4    1   29 1
     5    2    3 1
     6    2    9 1
     7    2   30 1
     8    3    7 1
     9    3    4 2
    10    4    5 1
    11    5    6 2
    12    6    7 1
    13    7    8 1
    14    8   31 1
    15    8   32 1
    16    8   33 1
    17    9   10 1
    18    9   18 1
    19   10   11 1
    20   10   34 1
    21   10   35 1
    22   11   16 ar
    23   11   12 ar
    24   12   13 ar
    25   12   36 1
    26   13   14 ar
    27   13   37 1
    28   14   15 ar
    29   14   38 1
    30   15   16 ar
    31   15   39 1
    32   16   17 1
    33   18   23 ar
    34   18   19 ar
    35   19   20 ar
    36   19   40 1
    37   20   21 ar
    38   20   41 1
    39   21   22 ar
    40   21   25 1
    41   22   23 ar
    42   22   24 1
    43   23   42 1
    44   25   26 3
@<TRIPOS>MOLECULE
CHEMBL551885
   42    44     0     0     0
SMALL
USER_CHARGES

@<TRIPOS>ATOM
      1 C1          0.9258    0.3393    1.0829 C.3       1 <0>         0.0931
      2 N1          0.5450   -1.0198    0.6903 N.am      1 <0>        -0.6200
      3 C2         -0.8392   -1.4715    0.5066 C.3       1 <0>         0.0829
      4 C3         -0.7407   -2.7824   -0.3048 C.3       1 <0>         0.1629
      5 H1         -1.4966   -3.4985    0.0177 H         1 <0>         0.1175
      6 C4          0.6790   -3.2737    0.0612 C.3       1 <0>        -0.1744
      7 C5          1.4188   -2.0117    0.4465 C.2       1 <0>         0.5171
      8 O1          2.6247   -1.9104    0.5265 O.2       1 <0>        -0.5263
      9 N2         -0.8510   -2.5191   -1.7417 N.pl3     1 <0>        -0.6544
     10 C6         -1.9199   -3.1478   -2.5217 C.3       1 <0>         0.1772
     11 C7         -3.1645   -2.3018   -2.4416 C.ar      1 <0>        -0.1023
     12 C8         -4.1563   -2.6155   -1.5312 C.ar      1 <0>        -0.0950
     13 C9         -5.2978   -1.8396   -1.4576 C.ar      1 <0>        -0.1156
     14 C10        -5.4484   -0.7493   -2.2944 C.ar      1 <0>        -0.1043
     15 C11        -4.4576   -0.4347   -3.2049 C.ar      1 <0>        -0.1122
     16 C12        -3.3121   -1.2077   -3.2751 C.ar      1 <0>        -0.0227
     17 Cl1        -2.0640   -0.8092   -4.4141 Cl        1 <0>        -0.0606
     18 C13         0.0598   -1.6716   -2.3659 C.ar      1 <0>         0.2175
     19 C14        -0.0530   -0.2930   -2.2070 C.ar      1 <0>        -0.1100
     20 C15         0.8452    0.5485   -2.8222 C.ar      1 <0>        -0.0535
     21 C16         1.8729    0.0180   -3.6084 C.ar      1 <0>        -0.0237
     22 C17         1.9838   -1.3678   -3.7663 C.ar      1 <0>         0.0163
     23 C18         1.0836   -2.2044   -3.1422 C.ar      1 <0>        -0.1211
     24 Cl2         3.2570   -2.0327   -4.7413 Cl        1 <0>        -0.0477
     25 C19         2.8091    0.8909   -4.2505 C.1       1 <0>         0.2472
     26 N3          3.5518    1.5833   -4.7598 N.1       1 <0>        -0.3961
     27 H2          2.0119    0.4093    1.1431 H         1 <0>         0.0824
     28 H3          0.5566    1.0484    0.3420 H         1 <0>         0.0597
     29 H4          0.4922    0.5715    2.0556 H         1 <0>         0.0611
     30 H5         -1.3058   -1.6605    1.4734 H         1 <0>         0.0796
     31 H6         -1.4087   -0.7261   -0.0486 H         1 <0>         0.0849
     32 H7          0.6379   -3.9678    0.9007 H         1 <0>         0.1140
     33 H8          1.1541   -3.7432   -0.8002 H         1 <0>         0.1083
     34 H9         -1.6069   -3.2361   -3.5620 H         1 <0>         0.0878
     35 H10        -2.1281   -4.1393   -2.1195 H         1 <0>         0.0877
     36 H11        -4.0393   -3.4673   -0.8775 H         1 <0>         0.1309
     37 H12        -6.0725   -2.0853   -0.7464 H         1 <0>         0.1286
     38 H13        -6.3407   -0.1437   -2.2367 H         1 <0>         0.1306
     39 H14        -4.5755    0.4168   -3.8587 H         1 <0>         0.1318
     40 H15        -0.8470    0.1166   -1.6001 H         1 <0>         0.1351
     41 H16         0.7563    1.6177   -2.6984 H         1 <0>         0.1412
     42 H17         1.1707   -3.2745   -3.2596 H         1 <0>         0.1444
@<TRIPOS>BOND
     1    1    2 1
     2    1   27 1
     3    1   28 1
     4    1   29 1
     5    2    7 am
     6    2    3 1
     7    3    4 1
     8    3   30 1
     9    3   31 1
    10    4    5 1
    11    4    6 1
    12    4    9 1
    13    6    7 1
    14    6   32 1
    15    6   33 1
    16    7    8 2
    17    9   10 1
    18    9   18 1
    19   10   11 1
    20   10   34 1
    21   10   35 1
    22   11   16 ar
    23   11   12 ar
    24   12   13 ar
    25   12   36 1
    26   13   14 ar
    27   13   37 1
    28   14   15 ar
    29   14   38 1
    30   15   16 ar
    31   15   39 1
    32   16   17 1
    33   18   23 ar
    34   18   19 ar
    35   19   20 ar
    36   19   40 1
    37   20   21 ar
    38   20   41 1
    39   21   22 ar
    40   21   25 1
    41   22   23 ar
    42   22   24 1
    43   23   42 1
    44   25   26 3
@<TRIPOS>MOLECULE
CHEMBL160451
   37    39     0     0     0
SMALL
USER_CHARGES

@<TRIPOS>ATOM
      1 C1         -0.0184    1.5028    0.0103 C.3       1 <0>        -0.1188
      2 C2          0.0021   -0.0041    0.0020 C.2       1 <0>        -0.0597
      3 C3          0.0057   -0.6651   -1.1486 C.2       1 <0>        -0.1727
      4 C4          0.0111   -2.1701   -1.1813 C.3       1 <0>         0.2112
      5 N1          0.6749   -2.6964    0.0179 N.pl3     1 <0>        -0.7319
      6 C5          0.3698   -2.1214    1.2493 C.ar      1 <0>         0.2780
      7 C6          0.0243   -0.7537    1.2746 C.ar      1 <0>        -0.1270
      8 C7         -0.2888   -0.1400    2.4742 C.ar      1 <0>        -0.0103
      9 C8         -0.2505   -0.8869    3.6574 C.ar      1 <0>        -0.1581
     10 C9         -0.5754   -0.2704    4.9435 C.2       1 <0>        -0.0686
     11 C10        -0.5220   -1.0368    6.0626 C.2       1 <0>        -0.1565
     12 C11        -0.1594   -2.3959    5.9759 C.2       1 <0>         0.5412
     13 N2          0.1415   -2.9727    4.7998 N.am      1 <0>        -0.6244
     14 C12         0.1050   -2.2515    3.6248 C.ar      1 <0>         0.2395
     15 C13         0.4050   -2.8584    2.4145 C.ar      1 <0>        -0.2305
     16 O1         -0.1172   -3.0654    6.9938 O.2       1 <0>        -0.5208
     17 C14        -0.9607    1.1843    5.0243 C.3       1 <0>         0.5076
     18 F1         -1.2204    1.5246    6.3562 F         1 <0>        -0.1675
     19 F2          0.0879    1.9722    4.5377 F         1 <0>        -0.1669
     20 F3         -2.1073    1.4066    4.2542 F         1 <0>        -0.1670
     21 C15         0.7596   -2.6482   -2.4271 C.3       1 <0>        -0.1534
     22 C16        -1.4299   -2.6820   -1.2300 C.3       1 <0>        -0.1591
     23 H1          1.0042    1.8801    0.0026 H         1 <0>         0.0740
     24 H2         -0.5455    1.8639   -0.8728 H         1 <0>         0.0713
     25 H3         -0.5286    1.8543    0.9071 H         1 <0>         0.0676
     26 H4          0.0045   -0.1140   -2.0774 H         1 <0>         0.1274
     27 H5          1.3100   -3.4267   -0.0458 H         1 <0>         0.4073
     28 H6         -0.5598    0.9051    2.4977 H         1 <0>         0.1394
     29 H7         -0.7580   -0.6032    7.0232 H         1 <0>         0.1705
     30 H8          0.6776   -3.9031    2.3868 H         1 <0>         0.1402
     31 H9          1.7855   -2.2810   -2.3979 H         1 <0>         0.0649
     32 H10         0.7644   -3.7379   -2.4522 H         1 <0>         0.0649
     33 H11         0.2623   -2.2664   -3.3187 H         1 <0>         0.0772
     34 H12        -1.9212   -2.3001   -2.1249 H         1 <0>         0.0696
     35 H13        -1.4278   -3.7717   -1.2537 H         1 <0>         0.0619
     36 H14        -1.9674   -2.3389   -0.3460 H         1 <0>         0.0587
     37 H15         0.3881   -3.9106    4.7770 H         1 <0>         0.4209
@<TRIPOS>BOND
     1    1    2 1
     2    1   23 1
     3    1   24 1
     4    1   25 1
     5    2    7 1
     6    2    3 2
     7    3    4 1
     8    3   26 1
     9    4    5 1
    10    4   21 1
    11    4   22 1
    12    5    6 1
    13    5   27 1
    14    6   15 ar
    15    6    7 ar
    16    7    8 ar
    17    8    9 ar
    18    8   28 1
    19    9   14 ar
    20    9   10 1
    21   10   11 2
    22   10   17 1
    23   11   12 1
    24   11   29 1
    25   12   13 am
    26   12   16 2
    27   13   14 1
    28   13   37 1
    29   14   15 ar
    30   15   30 1
    31   17   18 1
    32   17   19 1
    33   17   20 1
    34   21   31 1
    35   21   32 1
    36   21   33 1
    37   22   34 1
    38   22   35 1
    39   22   36 1
@<TRIPOS>MOLECULE
CHEMBL86310
   50    54     0     0     0
SMALL
USER_CHARGES

@<TRIPOS>ATOM
      1 C1          0.5580    2.1299   -2.5501 C.ar      1 <0>        -0.1150
      2 C2          1.7636    2.7757   -2.2814 C.ar      1 <0>        -0.1147
      3 C3          2.8269    2.0930   -1.7763 C.ar      1 <0>        -0.1089
      4 C4          2.7110    0.7159   -1.5201 C.ar      1 <0>        -0.0428
      5 C5          1.4848    0.0592   -1.7929 C.ar      1 <0>        -0.0497
      6 C6          0.4089    0.7979   -2.3148 C.ar      1 <0>        -0.1064
      7 C7          1.3687   -1.3173   -1.5364 C.ar      1 <0>        -0.1073
      8 C8          2.4321   -2.0002   -1.0307 C.ar      1 <0>        -0.1125
      9 C9          3.6373   -1.3546   -0.7621 C.ar      1 <0>        -0.1143
     10 C10         3.7865   -0.0223   -0.9984 C.ar      1 <0>        -0.0645
     11 C11         5.0986    0.6572   -0.7021 C.3       1 <0>        -0.0939
     12 C12         5.1561    1.0305    0.7806 C.3       1 <0>        -0.0071
     13 C13         4.1124    2.1136    1.0817 C.3       1 <0>        -0.1102
     14 C14         4.3386    2.6690    2.4904 C.3       1 <0>        -0.1209
     15 C15         5.6327    3.4938    2.5145 C.3       1 <0>        -0.0489
     16 C16         6.7253    2.6760    1.8828 C.2       1 <0>        -0.1489
     17 C17         6.5193    1.5801    1.1133 C.2       1 <0>         0.0207
     18 N1          7.7344    1.1226    0.7361 N.pl3     1 <0>        -0.2277
     19 N2          8.6588    1.8742    1.2268 N.2       1 <0>        -0.2295
     20 C18         8.1208    2.8512    1.9424 C.2       1 <0>        -0.0525
     21 C19         8.8414    3.9116    2.6599 C.2       1 <0>         0.4208
     22 O1         10.0533    3.9484    2.6301 O.2       1 <0>        -0.4458
     23 C20         7.9556   -0.0027   -0.0689 C.ar      1 <0>         0.1139
     24 C21         7.2737   -1.1852    0.1865 C.ar      1 <0>        -0.0800
     25 C22         7.4927   -2.2929   -0.6083 C.ar      1 <0>        -0.1385
     26 C23         8.3923   -2.2254   -1.6593 C.ar      1 <0>         0.1173
     27 C24         9.0737   -1.0472   -1.9153 C.ar      1 <0>        -0.1371
     28 C25         8.8528    0.0646   -1.1266 C.ar      1 <0>        -0.0664
     29 F1          8.6056   -3.3104   -2.4354 F         1 <0>        -0.1284
     30 H1         -0.2717    2.6960   -2.9469 H         1 <0>         0.1231
     31 H2          1.8553    3.8339   -2.4774 H         1 <0>         0.1228
     32 H3          3.7551    2.6066   -1.5737 H         1 <0>         0.1275
     33 H4         -0.5313    0.3109   -2.5276 H         1 <0>         0.1268
     34 H5          0.4404   -1.8308   -1.7390 H         1 <0>         0.1266
     35 H6          2.3402   -3.0582   -0.8344 H         1 <0>         0.1236
     36 H7          4.4655   -1.9197   -0.3607 H         1 <0>         0.1194
     37 H8          5.9198   -0.0195   -0.9385 H         1 <0>         0.0845
     38 H9          5.1855    1.5594   -1.3075 H         1 <0>         0.0801
     39 H10         4.9572    0.1485    1.3893 H         1 <0>         0.0909
     40 H11         4.2061    2.9200    0.3544 H         1 <0>         0.0716
     41 H12         3.1133    1.6824    1.0179 H         1 <0>         0.0779
     42 H13         3.4980    3.3041    2.7698 H         1 <0>         0.0750
     43 H14         4.4209    1.8435    3.1975 H         1 <0>         0.0668
     44 H15         5.4913    4.4159    1.9508 H         1 <0>         0.0815
     45 H16         5.8991    3.7295    3.5448 H         1 <0>         0.0818
     46 H17         8.2919    4.6583    3.2140 H         1 <0>         0.1270
     47 H18         6.5727   -1.2384    1.0063 H         1 <0>         0.1437
     48 H19         6.9626   -3.2127   -0.4100 H         1 <0>         0.1513
     49 H20         9.7750   -0.9966   -2.7351 H         1 <0>         0.1508
     50 H21         9.3808    0.9847   -1.3296 H         1 <0>         0.1462
@<TRIPOS>BOND
     1    1    6 ar
     2    1    2 ar
     3    1   30 1
     4    2    3 ar
     5    2   31 1
     6    3    4 ar
     7    3   32 1
     8    4   10 ar
     9    4    5 ar
    10    5    6 ar
    11    5    7 ar
    12    6   33 1
    13    7    8 ar
    14    7   34 1
    15    8    9 ar
    16    8   35 1
    17    9   10 ar
    18    9   36 1
    19   10   11 1
    20   11   12 1
    21   11   37 1
    22   11   38 1
    23   12   17 1
    24   12   13 1
    25   12   39 1
    26   13   14 1
    27   13   40 1
    28   13   41 1
    29   14   15 1
    30   14   42 1
    31   14   43 1
    32   15   16 1
    33   15   44 1
    34   15   45 1
    35   16   20 1
    36   16   17 2
    37   17   18 1
    38   18   19 1
    39   18   23 1
    40   19   20 2
    41   20   21 1
    42   21   22 2
    43   21   46 1
    44   23   28 ar
    45   23   24 ar
    46   24   25 ar
    47   24   47 1
    48   25   26 ar
    49   25   48 1
    50   26   27 ar
    51   26   29 1
    52   27   28 ar
    53   27   49 1
    54   28   50 1
@<TRIPOS>MOLECULE
CHEMBL86310__1
   50    54     0     0     0
SMALL
USER_CHARGES

@<TRIPOS>ATOM
      1 C1         -0.0229   -0.0210    0.3785 C.ar      1 <0>        -0.1163
      2 C2          0.9366    0.9900    0.3804 C.ar      1 <0>        -0.1139
      3 C3          2.2562    0.7040    0.2111 C.ar      1 <0>        -0.1221
      4 C4          2.6612   -0.6299    0.0319 C.ar      1 <0>        -0.0425
      5 C5          1.6855   -1.6581    0.0304 C.ar      1 <0>        -0.0499
      6 C6          0.3320   -1.3236    0.2078 C.ar      1 <0>        -0.1032
      7 C7          2.0904   -2.9916   -0.1483 C.ar      1 <0>        -0.1074
      8 C8          3.4105   -3.2778   -0.3173 C.ar      1 <0>        -0.1124
      9 C9          4.3696   -2.2671   -0.3154 C.ar      1 <0>        -0.1092
     10 C10         4.0143   -0.9640   -0.1455 C.ar      1 <0>        -0.0665
     11 C11         5.0669    0.1144   -0.1475 C.3       1 <0>        -0.0896
     12 C12         5.3522    0.5514    1.2907 C.3       1 <0>        -0.0098
     13 C13         5.8018   -0.6589    2.1191 C.3       1 <0>        -0.1084
     14 C14         6.3304   -0.1862    3.4761 C.3       1 <0>        -0.1211
     15 C15         7.6644    0.5467    3.2794 C.3       1 <0>        -0.0489
     16 C16         7.4873    1.5636    2.1858 C.2       1 <0>        -0.1484
     17 C17         6.4615    1.5714    1.3010 C.2       1 <0>         0.0209
     18 N1          6.6474    2.6316    0.4828 N.pl3     1 <0>        -0.2289
     19 N2          7.7211    3.2612    0.8164 N.2       1 <0>        -0.2289
     20 C18         8.2942    2.6684    1.8538 C.2       1 <0>        -0.0524
     21 C19         9.5326    3.0833    2.5266 C.2       1 <0>         0.4209
     22 O1         10.1356    4.0612    2.1379 O.2       1 <0>        -0.4458
     23 C20         5.7983    2.9924   -0.5718 C.ar      1 <0>         0.1161
     24 C21         4.4269    3.0651   -0.3664 C.ar      1 <0>        -0.0871
     25 C22         3.5918    3.4213   -1.4069 C.ar      1 <0>        -0.1370
     26 C23         4.1212    3.7054   -2.6548 C.ar      1 <0>         0.1184
     27 C24         5.4887    3.6330   -2.8618 C.ar      1 <0>        -0.1355
     28 C25         6.3277    3.2832   -1.8222 C.ar      1 <0>        -0.0657
     29 F1          3.3025    4.0532   -3.6716 F         1 <0>        -0.1277
     30 H1         -1.0632    0.2328    0.5192 H         1 <0>         0.1237
     31 H2          0.6280    2.0158    0.5180 H         1 <0>         0.1223
     32 H3          2.9884    1.4979    0.2141 H         1 <0>         0.1267
     33 H4         -0.4225   -2.0964    0.2089 H         1 <0>         0.1274
     34 H5          1.3581   -3.7854   -0.1513 H         1 <0>         0.1270
     35 H6          3.7190   -4.3036   -0.4544 H         1 <0>         0.1242
     36 H7          5.4104   -2.5213   -0.4511 H         1 <0>         0.1226
     37 H8          5.9814   -0.2712   -0.5982 H         1 <0>         0.0791
     38 H9          4.7105    0.9688   -0.7229 H         1 <0>         0.0825
     39 H10         4.4522    0.9831    1.7287 H         1 <0>         0.0901
     40 H11         4.9552   -1.3281    2.2727 H         1 <0>         0.0779
     41 H12         6.5913   -1.1896    1.5870 H         1 <0>         0.0714
     42 H13         5.6077    0.4908    3.9316 H         1 <0>         0.0667
     43 H14         6.4816   -1.0474    4.1269 H         1 <0>         0.0754
     44 H15         7.9482    1.0479    4.2048 H         1 <0>         0.0819
     45 H16         8.4376   -0.1673    2.9956 H         1 <0>         0.0818
     46 H17         9.9060    2.5175    3.3674 H         1 <0>         0.1271
     47 H18         4.0136    2.8429    0.6063 H         1 <0>         0.1445
     48 H19         2.5251    3.4779   -1.2476 H         1 <0>         0.1514
     49 H20         5.8996    3.8546   -3.8357 H         1 <0>         0.1515
     50 H21         7.3944    3.2315   -1.9828 H         1 <0>         0.1467
@<TRIPOS>BOND
     1    1    6 ar
     2    1    2 ar
     3    1   30 1
     4    2    3 ar
     5    2   31 1
     6    3    4 ar
     7    3   32 1
     8    4   10 ar
     9    4    5 ar
    10    5    6 ar
    11    5    7 ar
    12    6   33 1
    13    7    8 ar
    14    7   34 1
    15    8    9 ar
    16    8   35 1
    17    9   10 ar
    18    9   36 1
    19   10   11 1
    20   11   12 1
    21   11   37 1
    22   11   38 1
    23   12   17 1
    24   12   13 1
    25   12   39 1
    26   13   14 1
    27   13   40 1
    28   13   41 1
    29   14   15 1
    30   14   42 1
    31   14   43 1
    32   15   16 1
    33   15   44 1
    34   15   45 1
    35   16   20 1
    36   16   17 2
    37   17   18 1
    38   18   19 1
    39   18   23 1
    40   19   20 2
    41   20   21 1
    42   21   22 2
    43   21   46 1
    44   23   28 ar
    45   23   24 ar
    46   24   25 ar
    47   24   47 1
    48   25   26 ar
    49   25   48 1
    50   26   27 ar
    51   26   29 1
    52   27   28 ar
    53   27   49 1
    54   28   50 1
@<TRIPOS>MOLECULE
CHEMBL182961
   81    86     0     0     0
SMALL
USER_CHARGES

@<TRIPOS>ATOM
      1 C1         -1.5911    2.2185    1.0260 C.3       1 <0>        -0.0457
      2 C2         -1.1366    0.8203    1.0997 C.1       1 <0>        -0.1650
      3 C3         -0.7742   -0.2948    1.1585 C.1       1 <0>        -0.2109
      4 C4         -0.3198   -1.6930    1.2322 C.3       1 <0>         0.2573
      5 C5          0.9201   -1.9014    0.3292 C.3       1 <0>        -0.1449
      6 C6          0.4929   -2.9015   -0.7780 C.3       1 <0>        -0.1134
      7 C7         -1.0311   -2.7307   -0.8306 C.3       1 <0>        -0.0796
      8 H1         -1.2952   -1.8113   -1.3532 H         1 <0>         0.0794
      9 C8         -1.3918   -2.6271    0.6748 C.3       1 <0>        -0.0360
     10 C9         -2.8184   -2.1130    0.7593 C.3       1 <0>        -0.0950
     11 C10        -3.7333   -3.2187    0.2111 C.3       1 <0>        -0.0183
     12 H2         -4.7482   -2.8315    0.1201 H         1 <0>         0.0988
     13 C11        -3.2567   -3.6915   -1.1479 C.2       1 <0>        -0.0423
     14 C12        -4.1792   -3.8905   -2.0873 C.2       1 <0>        -0.1337
     15 C13        -5.6413   -3.6381   -1.7975 C.3       1 <0>        -0.0800
     16 C14        -6.2599   -2.9181   -2.9997 C.3       1 <0>        -0.1661
     17 C15        -5.9289   -3.6563   -4.2685 C.2       1 <0>         0.3875
     18 O1         -6.7517   -3.7057   -5.1606 O.2       1 <0>        -0.4719
     19 C16        -4.6857   -4.2897   -4.4418 C.2       1 <0>        -0.2496
     20 C17        -3.8130   -4.3810   -3.4157 C.2       1 <0>         0.0283
     21 C18        -2.4436   -4.9914   -3.5880 C.3       1 <0>        -0.0954
     22 C19        -1.4408   -4.0922   -2.8665 C.3       1 <0>        -0.1114
     23 C20        -1.7860   -3.9148   -1.4199 C.3       1 <0>        -0.0453
     24 H3         -1.4760   -4.8234   -0.9036 H         1 <0>         0.0938
     25 C21        -3.7314   -4.3828    1.1681 C.ar      1 <0>        -0.1120
     26 C22        -3.8025   -4.1561    2.5304 C.ar      1 <0>        -0.0645
     27 C23        -3.8010   -5.2206    3.4102 C.ar      1 <0>        -0.1881
     28 C24        -3.7280   -6.5203    2.9253 C.ar      1 <0>         0.2125
     29 C25        -3.6568   -6.7445    1.5562 C.ar      1 <0>        -0.1953
     30 C26        -3.6644   -5.6756    0.6818 C.ar      1 <0>        -0.0743
     31 N1         -3.7259   -7.5992    3.8123 N.pl3     1 <0>        -0.6258
     32 C27        -3.8006   -7.3609    5.2558 C.3       1 <0>         0.0949
     33 C28        -3.6488   -8.9692    3.2991 C.3       1 <0>         0.1300
     34 C29        -2.1821   -9.3896    3.1856 C.3       1 <0>         0.0893
     35 H4         -1.6423   -8.6660    2.5748 H         1 <0>         0.0889
     36 C30        -2.0957  -10.7730    2.5354 C.3       1 <0>        -0.1536
     37 C31        -0.6287  -11.2084    2.4612 C.3       1 <0>         0.1061
     38 H5         -0.5641  -12.1987    2.0103 H         1 <0>         0.0804
     39 C32        -0.0519  -11.2521    3.8819 C.3       1 <0>        -0.2049
     40 C33        -0.3394   -9.9263    4.5520 C.2       1 <0>         0.4951
     41 O2          0.5329   -9.3172    5.1246 O.2       1 <0>        -0.4514
     42 O3         -1.5977   -9.4431    4.4918 O.3       1 <0>        -0.3645
     43 O4          0.1088  -10.2737    1.6710 O.3       1 <0>        -0.5625
     44 C34        -1.2795   -4.0029    1.3348 C.3       1 <0>        -0.1472
     45 O5         -0.0137   -2.0421    2.5836 O.3       1 <0>        -0.5380
     46 H6         -0.8174    2.8735    1.4265 H         1 <0>         0.0811
     47 H7         -1.7883    2.4821   -0.0131 H         1 <0>         0.0817
     48 H8         -2.5040    2.3350    1.6100 H         1 <0>         0.0820
     49 H9          1.2206   -0.9540   -0.1182 H         1 <0>         0.0716
     50 H10         1.7417   -2.3175    0.9123 H         1 <0>         0.0805
     51 H11         0.9438   -2.6339   -1.7336 H         1 <0>         0.0707
     52 H12         0.7568   -3.9215   -0.4985 H         1 <0>         0.0753
     53 H13        -3.0751   -1.8993    1.7969 H         1 <0>         0.0746
     54 H14        -2.9241   -1.2109    0.1566 H         1 <0>         0.0678
     55 H15        -6.1519   -4.5876   -1.6371 H         1 <0>         0.0811
     56 H16        -5.7358   -3.0140   -0.9088 H         1 <0>         0.0928
     57 H17        -7.3423   -2.8754   -2.8780 H         1 <0>         0.0941
     58 H18        -5.8638   -1.9043   -3.0572 H         1 <0>         0.0983
     59 H19        -4.4266   -4.7067   -5.4038 H         1 <0>         0.1342
     60 H20        -2.4263   -5.9896   -3.1506 H         1 <0>         0.0890
     61 H21        -2.1945   -5.0470   -4.6477 H         1 <0>         0.0852
     62 H22        -0.4467   -4.5317   -2.9487 H         1 <0>         0.0787
     63 H23        -1.4349   -3.1124   -3.3440 H         1 <0>         0.0668
     64 H24        -3.8589   -3.1453    2.9068 H         1 <0>         0.1204
     65 H25        -3.8562   -5.0428    4.4740 H         1 <0>         0.1210
     66 H26        -3.5995   -7.7537    1.1759 H         1 <0>         0.1170
     67 H27        -3.6134   -5.8493   -0.3830 H         1 <0>         0.1200
     68 H28        -4.8450   -7.3421    5.5674 H         1 <0>         0.0465
     69 H29        -3.2784   -8.1591    5.7834 H         1 <0>         0.0729
     70 H30        -3.3341   -6.4042    5.4908 H         1 <0>         0.0674
     71 H31        -4.1680   -9.6425    3.9812 H         1 <0>         0.0873
     72 H32        -4.1172   -9.0158    2.3159 H         1 <0>         0.1001
     73 H33        -2.6585  -11.4910    3.1318 H         1 <0>         0.0972
     74 H34        -2.5132  -10.7287    1.5295 H         1 <0>         0.0991
     75 H35        -0.5224  -12.0581    4.4450 H         1 <0>         0.1182
     76 H36         1.0249  -11.4149    3.8365 H         1 <0>         0.1076
     77 H37         1.0474  -10.4883    1.5818 H         1 <0>         0.3865
     78 H38        -1.7051   -3.9607    2.3374 H         1 <0>         0.0714
     79 H39        -1.8231   -4.7368    0.7398 H         1 <0>         0.0830
     80 H40        -0.2302   -4.2913    1.3974 H         1 <0>         0.0462
     81 H41         0.6749   -1.4946    2.9850 H         1 <0>         0.3769
@<TRIPOS>BOND
     1    1    2 1
     2    1   46 1
     3    1   47 1
     4    1   48 1
     5    2    3 3
     6    3    4 1
     7    4    9 1
     8    4    5 1
     9    4   45 1
    10    5    6 1
    11    5   49 1
    12    5   50 1
    13    6    7 1
    14    6   51 1
    15    6   52 1
    16    7    8 1
    17    7   23 1
    18    7    9 1
    19    9   10 1
    20    9   44 1
    21   10   11 1
    22   10   53 1
    23   10   54 1
    24   11   12 1
    25   11   13 1
    26   11   25 1
    27   13   23 1
    28   13   14 2
    29   14   20 1
    30   14   15 1
    31   15   16 1
    32   15   55 1
    33   15   56 1
    34   16   17 1
    35   16   57 1
    36   16   58 1
    37   17   18 2
    38   17   19 1
    39   19   20 2
    40   19   59 1
    41   20   21 1
    42   21   22 1
    43   21   60 1
    44   21   61 1
    45   22   23 1
    46   22   62 1
    47   22   63 1
    48   23   24 1
    49   25   30 ar
    50   25   26 ar
    51   26   27 ar
    52   26   64 1
    53   27   28 ar
    54   27   65 1
    55   28   29 ar
    56   28   31 1
    57   29   30 ar
    58   29   66 1
    59   30   67 1
    60   31   32 1
    61   31   33 1
    62   32   68 1
    63   32   69 1
    64   32   70 1
    65   33   34 1
    66   33   71 1
    67   33   72 1
    68   34   35 1
    69   34   42 1
    70   34   36 1
    71   36   37 1
    72   36   73 1
    73   36   74 1
    74   37   38 1
    75   37   39 1
    76   37   43 1
    77   39   40 1
    78   39   75 1
    79   39   76 1
    80   40   41 2
    81   40   42 1
    82   43   77 1
    83   44   78 1
    84   44   79 1
    85   44   80 1
    86   45   81 1
@<TRIPOS>MOLECULE
CHEMBL491206
   36    38     0     0     0
SMALL
USER_CHARGES

@<TRIPOS>ATOM
      1 C1         -0.0187    1.5258    0.0104 C.3       1 <0>        -0.1444
      2 C2          0.0021   -0.0041    0.0020 C.3       1 <0>         0.1576
      3 C3          0.4679   -0.4616   -1.3455 C.ar      1 <0>        -0.1327
      4 C4          0.2821    0.4372   -2.3897 C.ar      1 <0>        -0.0582
      5 C5          0.6774    0.1266   -3.6864 C.ar      1 <0>        -0.0480
      6 C6          1.2716   -1.1127   -3.9385 C.ar      1 <0>        -0.0782
      7 C7          1.4518   -1.9972   -2.9077 C.ar      1 <0>        -0.1541
      8 C8          1.0518   -1.6885   -1.5946 C.ar      1 <0>         0.1883
      9 N1          1.2872   -2.6758   -0.6649 N.am      1 <0>        -0.6464
     10 C9          1.2198   -2.7529    0.6374 C.2       1 <0>         0.4965
     11 O1          1.7120   -3.7343    1.1530 O.2       1 <0>        -0.5290
     12 C10         0.5984   -1.7540    1.5518 C.3       1 <0>         0.0467
     13 O2          0.7786   -0.4390    1.0782 O.3       1 <0>        -0.3519
     14 C11         0.4714    1.0941   -4.7832 C.2       1 <0>         0.1027
     15 C12        -0.0956    2.3442   -4.6604 C.2       1 <0>        -0.1790
     16 C13        -0.1035    2.9311   -5.9251 C.2       1 <0>        -0.1046
     17 C14         0.4604    2.0283   -6.8046 C.2       1 <0>         0.0609
     18 N2          0.8156    0.9052   -6.0919 N.pl3     1 <0>        -0.5265
     19 H1          1.2372    0.1119   -6.4579 H         1 <0>         0.4214
     20 C15         0.6483    2.2277   -8.2102 C.1       1 <0>         0.2735
     21 N3          0.7973    2.3858   -9.3252 N.1       1 <0>        -0.4003
     22 C16        -1.4292   -0.5039    0.2080 C.3       1 <0>        -0.1893
     23 H2          0.9717    1.9040   -0.2428 H         1 <0>         0.0717
     24 H3         -0.7424    1.8834   -0.7220 H         1 <0>         0.0813
     25 H4         -0.3002    1.8799    1.0021 H         1 <0>         0.0738
     26 H5         -0.1771    1.3941   -2.1902 H         1 <0>         0.1467
     27 H6          1.5863   -1.3717   -4.9387 H         1 <0>         0.1265
     28 H7          1.9115   -2.9537   -3.1078 H         1 <0>         0.1331
     29 H8          1.5689   -3.5098   -1.0722 H         1 <0>         0.4004
     30 H9         -0.4688   -1.9604    1.6326 H         1 <0>         0.0973
     31 H10         1.0531   -1.8429    2.5385 H         1 <0>         0.1420
     32 H11        -0.4668    2.7890   -3.7489 H         1 <0>         0.1529
     33 H12        -0.4819    3.9122   -6.1717 H         1 <0>         0.1549
     34 H13        -2.0628   -0.1338   -0.5980 H         1 <0>         0.0787
     35 H14        -1.4374   -1.5938    0.2053 H         1 <0>         0.0592
     36 H15        -1.8072   -0.1400    1.1635 H         1 <0>         0.0766
@<TRIPOS>BOND
     1    1    2 1
     2    1   23 1
     3    1   24 1
     4    1   25 1
     5    2   13 1
     6    2    3 1
     7    2   22 1
     8    3    8 ar
     9    3    4 ar
    10    4    5 ar
    11    4   26 1
    12    5    6 ar
    13    5   14 1
    14    6    7 ar
    15    6   27 1
    16    7    8 ar
    17    7   28 1
    18    8    9 1
    19    9   10 am
    20    9   29 1
    21   10   11 2
    22   10   12 1
    23   12   13 1
    24   12   30 1
    25   12   31 1
    26   14   18 1
    27   14   15 2
    28   15   16 1
    29   15   32 1
    30   16   17 2
    31   16   33 1
    32   17   18 1
    33   17   20 1
    34   18   19 1
    35   20   21 3
    36   22   34 1
    37   22   35 1
    38   22   36 1
@<TRIPOS>MOLECULE
CHEMBL491206__1
   35    37     0     0     0
SMALL
USER_CHARGES

@<TRIPOS>ATOM
      1 C1         -0.0187    1.5258    0.0104 C.3       1 <0>        -0.1404
      2 C2          0.0021   -0.0041    0.0020 C.3       1 <0>         0.1615
      3 C3          0.4679   -0.4616   -1.3455 C.ar      1 <0>        -0.1296
      4 C4          0.2821    0.4372   -2.3897 C.ar      1 <0>        -0.0938
      5 C5          0.6774    0.1266   -3.6864 C.ar      1 <0>         0.0377
      6 C6          1.2716   -1.1127   -3.9385 C.ar      1 <0>        -0.0933
      7 C7          1.4518   -1.9972   -2.9077 C.ar      1 <0>        -0.1537
      8 C8          1.0518   -1.6885   -1.5946 C.ar      1 <0>         0.1311
      9 N1          1.2872   -2.6758   -0.6649 N.am      1 <0>        -0.6362
     10 C9          1.2198   -2.7529    0.6374 C.2       1 <0>         0.4933
     11 O1          1.7120   -3.7343    1.1530 O.2       1 <0>        -0.5551
     12 C10         0.5984   -1.7540    1.5518 C.3       1 <0>         0.0495
     13 O2          0.7786   -0.4390    1.0782 O.3       1 <0>        -0.3570
     14 C11         0.4714    1.0941   -4.7832 C.2       1 <0>        -0.0181
     15 C12         0.8136    0.9014   -6.1041 C.2       1 <0>        -0.2350
     16 C13         0.4517    2.0500   -6.8068 C.2       1 <0>        -0.2019
     17 C14        -0.1080    2.9303   -5.9021 C.2       1 <0>        -0.0251
     18 N2         -0.0966    2.3311   -4.6626 N.2       1 <0>        -0.4909
     19 C15        -0.6166    4.2350   -6.2016 C.1       1 <0>         0.3312
     20 N3         -1.0200    5.2700   -6.4392 N.1       1 <0>        -0.5098
     21 C16        -1.4292   -0.5039    0.2080 C.3       1 <0>        -0.1852
     22 H1          0.9717    1.9040   -0.2428 H         1 <0>         0.0694
     23 H2         -0.7424    1.8834   -0.7220 H         1 <0>         0.0848
     24 H3         -0.3002    1.8799    1.0021 H         1 <0>         0.0637
     25 H4         -0.1771    1.3941   -2.1902 H         1 <0>         0.1411
     26 H5          1.5863   -1.3717   -4.9387 H         1 <0>         0.1280
     27 H6          1.9115   -2.9537   -3.1078 H         1 <0>         0.1193
     28 H7          1.5689   -3.5098   -1.0722 H         1 <0>         0.3946
     29 H8         -0.4688   -1.9604    1.6326 H         1 <0>         0.0904
     30 H9          1.0531   -1.8429    2.5385 H         1 <0>         0.1333
     31 H10         1.2783    0.0196   -6.5200 H         1 <0>         0.0966
     32 H11         0.5851    2.2201   -7.8649 H         1 <0>         0.0969
     33 H12        -2.0628   -0.1338   -0.5980 H         1 <0>         0.0781
     34 H13        -1.4374   -1.5938    0.2053 H         1 <0>         0.0562
     35 H14        -1.8072   -0.1400    1.1635 H         1 <0>         0.0684
@<TRIPOS>BOND
     1    1    2 1
     2    1   22 1
     3    1   23 1
     4    1   24 1
     5    2   13 1
     6    2    3 1
     7    2   21 1
     8    3    8 ar
     9    3    4 ar
    10    4    5 ar
    11    4   25 1
    12    5    6 ar
    13    5   14 1
    14    6    7 ar
    15    6   26 1
    16    7    8 ar
    17    7   27 1
    18    8    9 1
    19    9   10 am
    20    9   28 1
    21   10   11 2
    22   10   12 1
    23   12   13 1
    24   12   29 1
    25   12   30 1
    26   14   18 1
    27   14   15 2
    28   15   16 1
    29   15   31 1
    30   16   17 2
    31   16   32 1
    32   17   18 1
    33   17   19 1
    34   19   20 3
    35   21   33 1
    36   21   34 1
    37   21   35 1
@<TRIPOS>MOLECULE
CHEMBL489781
   43    46     0     0     0
SMALL
USER_CHARGES

@<TRIPOS>ATOM
      1 C1         -0.0169    1.3927    0.0097 C.ar      1 <0>        -0.0785
      2 C2          1.1661    2.0844    0.0021 C.ar      1 <0>        -0.1549
      3 C3          2.4075    1.4217   -0.0158 C.ar      1 <0>         0.1900
      4 C4          2.4238    0.0412   -0.0214 C.ar      1 <0>        -0.1329
      5 C5          1.2265   -0.6645   -0.0139 C.ar      1 <0>        -0.0604
      6 C6          0.0021   -0.0041    0.0020 C.ar      1 <0>        -0.0479
      7 C7         -1.2610   -0.7697    0.0112 C.2       1 <0>         0.1031
      8 C8         -1.3719   -2.1433    0.0110 C.2       1 <0>        -0.1790
      9 C9         -2.7301   -2.4580    0.0221 C.2       1 <0>        -0.1045
     10 C10        -3.4313   -1.2684    0.0289 C.2       1 <0>         0.0607
     11 N1         -2.5192   -0.2370    0.0272 N.pl3     1 <0>        -0.5265
     12 H1         -2.7339    0.7089    0.0340 H         1 <0>         0.4213
     13 C11        -4.8567   -1.1316    0.0408 C.1       1 <0>         0.2735
     14 N2         -5.9874   -1.0230    0.0503 N.1       1 <0>        -0.4004
     15 C12         3.6700   -0.7989   -0.0307 C.3       1 <0>         0.1669
     16 C13         4.1094   -1.0191    1.4276 C.3       1 <0>        -0.1505
     17 C14         5.3523   -1.9086    1.4525 C.3       1 <0>        -0.1228
     18 C15         5.0218   -3.2667    0.8304 C.3       1 <0>        -0.1199
     19 C16         4.5574   -3.0650   -0.6132 C.3       1 <0>        -0.1203
     20 C17         3.3174   -2.1712   -0.6316 C.3       1 <0>        -0.1063
     21 O1          4.7318   -0.2379   -0.7540 O.3       1 <0>        -0.3482
     22 C18         5.5104    0.7709   -0.1645 C.3       1 <0>         0.0482
     23 C19         4.7937    2.0794   -0.1626 C.2       1 <0>         0.4962
     24 O2          5.4673    3.0768   -0.3127 O.2       1 <0>        -0.5290
     25 N3          3.5069    2.2492   -0.0145 N.am      1 <0>        -0.6463
     26 H2         -0.9572    1.9237    0.0260 H         1 <0>         0.1261
     27 H3          1.1453    3.1642    0.0097 H         1 <0>         0.1328
     28 H4          1.2470   -1.7442   -0.0205 H         1 <0>         0.1471
     29 H5         -0.5542   -2.8487    0.0036 H         1 <0>         0.1525
     30 H6         -3.1559   -3.4505    0.0243 H         1 <0>         0.1548
     31 H7          4.3405   -0.0581    1.8869 H         1 <0>         0.0639
     32 H8          3.3045   -1.5031    1.9809 H         1 <0>         0.0842
     33 H9          6.1507   -1.4330    0.8829 H         1 <0>         0.0680
     34 H10         5.6767   -2.0506    2.4833 H         1 <0>         0.0676
     35 H11         5.9106   -3.8977    0.8416 H         1 <0>         0.0657
     36 H12         4.2284   -3.7459    1.4040 H         1 <0>         0.0634
     37 H13         5.3539   -2.5928   -1.1883 H         1 <0>         0.0734
     38 H14         4.3148   -4.0315   -1.0550 H         1 <0>         0.0674
     39 H15         2.5264   -2.6342   -0.0416 H         1 <0>         0.0867
     40 H16         2.9774   -2.0419   -1.6590 H         1 <0>         0.0780
     41 H17         5.7411    0.4890    0.8628 H         1 <0>         0.0961
     42 H18         6.4412    0.8748   -0.7222 H         1 <0>         0.1408
     43 H19         3.2704    3.1787    0.1303 H         1 <0>         0.3997
@<TRIPOS>BOND
     1    1    6 ar
     2    1    2 ar
     3    1   26 1
     4    2    3 ar
     5    2   27 1
     6    3   25 1
     7    3    4 ar
     8    4    5 ar
     9    4   15 1
    10    5    6 ar
    11    5   28 1
    12    6    7 1
    13    7   11 1
    14    7    8 2
    15    8    9 1
    16    8   29 1
    17    9   10 2
    18    9   30 1
    19   10   11 1
    20   10   13 1
    21   11   12 1
    22   13   14 3
    23   15   20 1
    24   15   16 1
    25   15   21 1
    26   16   17 1
    27   16   31 1
    28   16   32 1
    29   17   18 1
    30   17   33 1
    31   17   34 1
    32   18   19 1
    33   18   35 1
    34   18   36 1
    35   19   20 1
    36   19   37 1
    37   19   38 1
    38   20   39 1
    39   20   40 1
    40   21   22 1
    41   22   23 1
    42   22   41 1
    43   22   42 1
    44   23   24 2
    45   23   25 am
    46   25   43 1
@<TRIPOS>MOLECULE
CHEMBL489781__1
   42    45     0     0     0
SMALL
USER_CHARGES

@<TRIPOS>ATOM
      1 C1         -0.0169    1.3927    0.0097 C.ar      1 <0>        -0.0936
      2 C2          1.1661    2.0844    0.0021 C.ar      1 <0>        -0.1545
      3 C3          2.4075    1.4217   -0.0158 C.ar      1 <0>         0.1330
      4 C4          2.4238    0.0412   -0.0214 C.ar      1 <0>        -0.1300
      5 C5          1.2265   -0.6645   -0.0139 C.ar      1 <0>        -0.0956
      6 C6          0.0021   -0.0041    0.0020 C.ar      1 <0>         0.0378
      7 C7         -1.2610   -0.7697    0.0112 C.2       1 <0>        -0.0179
      8 C8         -2.5286   -0.2360   -0.0756 C.2       1 <0>        -0.2351
      9 C9         -3.4365   -1.2932   -0.0325 C.2       1 <0>        -0.2019
     10 C10        -2.7081   -2.4609    0.0803 C.2       1 <0>        -0.0253
     11 N1         -1.3722   -2.1286    0.1011 N.2       1 <0>        -0.4906
     12 C11        -3.2473   -3.7853    0.1568 C.1       1 <0>         0.3311
     13 N2         -3.6751   -4.8359    0.2175 N.1       1 <0>        -0.5100
     14 C12         3.6700   -0.7989   -0.0307 C.3       1 <0>         0.1725
     15 C13         4.1094   -1.0191    1.4276 C.3       1 <0>        -0.1499
     16 C14         5.3523   -1.9086    1.4525 C.3       1 <0>        -0.1194
     17 C15         5.0218   -3.2667    0.8304 C.3       1 <0>        -0.1190
     18 C16         4.5574   -3.0650   -0.6132 C.3       1 <0>        -0.1177
     19 C17         3.3174   -2.1712   -0.6316 C.3       1 <0>        -0.1068
     20 O1          4.7318   -0.2379   -0.7540 O.3       1 <0>        -0.3534
     21 C18         5.5104    0.7709   -0.1645 C.3       1 <0>         0.0513
     22 C19         4.7937    2.0794   -0.1626 C.2       1 <0>         0.4928
     23 O2          5.4673    3.0768   -0.3127 O.2       1 <0>        -0.5550
     24 N3          3.5069    2.2492   -0.0145 N.am      1 <0>        -0.6362
     25 H1         -0.9572    1.9237    0.0260 H         1 <0>         0.1276
     26 H2          1.1453    3.1642    0.0097 H         1 <0>         0.1189
     27 H3          1.2470   -1.7442   -0.0205 H         1 <0>         0.1416
     28 H4         -2.7744    0.8121   -0.1614 H         1 <0>         0.0964
     29 H5         -4.5126   -1.2135   -0.0783 H         1 <0>         0.0967
     30 H6          4.3405   -0.0581    1.8869 H         1 <0>         0.0614
     31 H7          3.3045   -1.5031    1.9809 H         1 <0>         0.0840
     32 H8          6.1507   -1.4330    0.8829 H         1 <0>         0.0650
     33 H9          5.6767   -2.0506    2.4833 H         1 <0>         0.0625
     34 H10         5.9106   -3.8977    0.8416 H         1 <0>         0.0604
     35 H11         4.2284   -3.7459    1.4040 H         1 <0>         0.0635
     36 H12         5.3539   -2.5928   -1.1883 H         1 <0>         0.0692
     37 H13         4.3148   -4.0315   -1.0550 H         1 <0>         0.0632
     38 H14         2.5264   -2.6342   -0.0416 H         1 <0>         0.0924
     39 H15         2.9774   -2.0419   -1.6590 H         1 <0>         0.0753
     40 H16         5.7411    0.4890    0.8628 H         1 <0>         0.0895
     41 H17         6.4412    0.8748   -0.7222 H         1 <0>         0.1320
     42 H18         3.2704    3.1787    0.1303 H         1 <0>         0.3939
@<TRIPOS>BOND
     1    1    6 ar
     2    1    2 ar
     3    1   25 1
     4    2    3 ar
     5    2   26 1
     6    3   24 1
     7    3    4 ar
     8    4    5 ar
     9    4   14 1
    10    5    6 ar
    11    5   27 1
    12    6    7 1
    13    7   11 1
    14    7    8 2
    15    8    9 1
    16    8   28 1
    17    9   10 2
    18    9   29 1
    19   10   11 1
    20   10   12 1
    21   12   13 3
    22   14   19 1
    23   14   15 1
    24   14   20 1
    25   15   16 1
    26   15   30 1
    27   15   31 1
    28   16   17 1
    29   16   32 1
    30   16   33 1
    31   17   18 1
    32   17   34 1
    33   17   35 1
    34   18   19 1
    35   18   36 1
    36   18   37 1
    37   19   38 1
    38   19   39 1
    39   20   21 1
    40   21   22 1
    41   21   40 1
    42   21   41 1
    43   22   23 2
    44   22   24 am
    45   24   42 1
@<TRIPOS>MOLECULE
CHEMBL392500
   55    57     0     0     0
SMALL
USER_CHARGES

@<TRIPOS>ATOM
      1 C1          1.0357   -0.5219    1.2573 C.3       1 <0>        -0.1525
      2 C2          0.0096   -0.7927    0.1552 C.3       1 <0>        -0.0150
      3 C3          0.3929   -2.0693   -0.5959 C.3       1 <0>        -0.1358
      4 C4         -1.3764   -0.9651    0.7799 C.3       1 <0>        -0.1536
      5 C5         -1.5187   -0.0196    1.9743 C.3       1 <0>         0.1058
      6 C6         -2.8623   -0.2667    2.6632 C.3       1 <0>        -0.1232
      7 C7         -3.0029    0.6654    3.8390 C.ar      1 <0>        -0.0395
      8 C8         -2.3773    0.3702    5.0113 C.ar      1 <0>        -0.1050
      9 C9         -2.4763    1.1962    6.1226 C.ar      1 <0>        -0.0455
     10 C10        -3.2269    2.3639    6.0703 C.ar      1 <0>        -0.0263
     11 C11        -3.9076    2.7027    4.8225 C.ar      1 <0>        -0.0141
     12 C12        -3.7736    1.8330    3.7124 C.ar      1 <0>        -0.0320
     13 C13        -4.4211    2.1545    2.5068 C.ar      1 <0>        -0.1102
     14 C14        -5.1593    3.2953    2.4228 C.ar      1 <0>        -0.1078
     15 C15        -5.2837    4.1517    3.5144 C.ar      1 <0>        -0.1007
     16 C16        -4.6803    3.8641    4.7024 C.ar      1 <0>        -0.1112
     17 C17        -3.3316    3.2175    7.2153 C.1       1 <0>         0.2547
     18 N1         -3.4148    3.8946    8.1237 N.1       1 <0>        -0.4109
     19 C18        -1.4537    1.4297    1.4881 C.3       1 <0>         0.4610
     20 F1         -2.4273    1.6357    0.5047 F         1 <0>        -0.1721
     21 F2         -1.6872    2.2933    2.5636 F         1 <0>        -0.1658
     22 F3         -0.1873    1.6851    0.9513 F         1 <0>        -0.1531
     23 O1         -0.4573   -0.2592    2.9006 O.3       1 <0>        -0.5214
     24 C19        -0.0134    0.3679   -0.8059 C.ar      1 <0>        -0.0608
     25 C20        -1.1986    0.7419   -1.4097 C.ar      1 <0>        -0.1372
     26 C21        -1.2203    1.8082   -2.2922 C.ar      1 <0>         0.0704
     27 C22        -0.0543    2.5012   -2.5715 C.ar      1 <0>        -0.1238
     28 C23         1.1319    2.1295   -1.9693 C.ar      1 <0>        -0.1766
     29 C24         1.1539    1.0646   -1.0803 C.ar      1 <0>         0.1270
     30 O2          2.3196    0.7013   -0.4826 O.3       1 <0>        -0.2938
     31 C25         3.4826    1.4635   -0.8120 C.3       1 <0>         0.0152
     32 F4         -2.3798    2.1728   -2.8819 F         1 <0>        -0.1404
     33 H1          2.0409   -0.5786    0.8398 H         1 <0>         0.0672
     34 H2          0.8699    0.4726    1.6717 H         1 <0>         0.0930
     35 H3          0.9271   -1.2667    2.0458 H         1 <0>         0.0573
     36 H4          0.3249   -2.9224    0.0792 H         1 <0>         0.0612
     37 H5         -0.2872   -2.2151   -1.4352 H         1 <0>         0.0548
     38 H6          1.4139   -1.9800   -0.9669 H         1 <0>         0.0632
     39 H7         -2.1406   -0.7316    0.0386 H         1 <0>         0.0935
     40 H8         -1.4982   -1.9950    1.1153 H         1 <0>         0.0982
     41 H9         -3.6719   -0.0846    1.9564 H         1 <0>         0.1000
     42 H10        -2.9082   -1.2989    3.0102 H         1 <0>         0.1085
     43 H11        -1.7876   -0.5321    5.0788 H         1 <0>         0.1339
     44 H12        -1.9657    0.9284    7.0358 H         1 <0>         0.1368
     45 H13        -4.3330    1.5004    1.6520 H         1 <0>         0.1319
     46 H14        -5.6559    3.5403    1.4955 H         1 <0>         0.1277
     47 H15        -5.8747    5.0509    3.4212 H         1 <0>         0.1279
     48 H16        -4.7857    4.5356    5.5417 H         1 <0>         0.1248
     49 H17        -0.4369   -1.1603    3.2509 H         1 <0>         0.3892
     50 H18        -2.1085    0.2018   -1.1933 H         1 <0>         0.1439
     51 H19        -0.0725    3.3324   -3.2607 H         1 <0>         0.1352
     52 H20         2.0411    2.6699   -2.1875 H         1 <0>         0.1362
     53 H21         3.6696    1.3962   -1.8837 H         1 <0>         0.0541
     54 H22         3.3242    2.5059   -0.5355 H         1 <0>         0.0551
     55 H23         4.3411    1.0697   -0.2679 H         1 <0>         0.1004
@<TRIPOS>BOND
     1    1    2 1
     2    1   33 1
     3    1   34 1
     4    1   35 1
     5    2    3 1
     6    2    4 1
     7    2   24 1
     8    3   36 1
     9    3   37 1
    10    3   38 1
    11    4    5 1
    12    4   39 1
    13    4   40 1
    14    5    6 1
    15    5   19 1
    16    5   23 1
    17    6    7 1
    18    6   41 1
    19    6   42 1
    20    7   12 ar
    21    7    8 ar
    22    8    9 ar
    23    8   43 1
    24    9   10 ar
    25    9   44 1
    26   10   11 ar
    27   10   17 1
    28   11   16 ar
    29   11   12 ar
    30   12   13 ar
    31   13   14 ar
    32   13   45 1
    33   14   15 ar
    34   14   46 1
    35   15   16 ar
    36   15   47 1
    37   16   48 1
    38   17   18 3
    39   19   20 1
    40   19   21 1
    41   19   22 1
    42   23   49 1
    43   24   29 ar
    44   24   25 ar
    45   25   26 ar
    46   25   50 1
    47   26   27 ar
    48   26   32 1
    49   27   28 ar
    50   27   51 1
    51   28   29 ar
    52   28   52 1
    53   29   30 1
    54   30   31 1
    55   31   53 1
    56   31   54 1
    57   31   55 1
@<TRIPOS>MOLECULE
CHEMBL392500__1
   55    57     0     0     0
SMALL
USER_CHARGES

@<TRIPOS>ATOM
      1 C1          0.1895    0.4791   -1.5640 C.3       1 <0>        -0.1374
      2 C2         -0.1032    0.6014   -0.0672 C.3       1 <0>        -0.0129
      3 C3         -0.1630    2.0800    0.3216 C.3       1 <0>        -0.1575
      4 C4         -1.4454   -0.0630    0.2459 C.3       1 <0>        -0.1576
      5 C5         -2.0818    0.6195    1.4584 C.3       1 <0>         0.1040
      6 C6         -3.4712    0.0284    1.7054 C.3       1 <0>        -0.1219
      7 C7         -4.0980    0.7006    2.8997 C.ar      1 <0>        -0.0422
      8 C8         -3.9850    0.1299    4.1303 C.ar      1 <0>        -0.1085
      9 C9         -4.5447    0.7096    5.2607 C.ar      1 <0>        -0.0438
     10 C10        -5.2461    1.9051    5.1680 C.ar      1 <0>        -0.0249
     11 C11        -5.3806    2.5374    3.8575 C.ar      1 <0>        -0.0129
     12 C12        -4.7881    1.9128    2.7326 C.ar      1 <0>        -0.0296
     13 C13        -4.9085    2.5174    1.4694 C.ar      1 <0>        -0.0974
     14 C14        -5.5851    3.6925    1.3474 C.ar      1 <0>        -0.1111
     15 C15        -6.1611    4.3075    2.4567 C.ar      1 <0>        -0.1004
     16 C16        -6.0749    3.7422    3.6941 C.ar      1 <0>        -0.1102
     17 C17        -5.8254    2.5050    6.3321 C.1       1 <0>         0.2543
     18 N1         -6.2850    2.9809    7.2556 N.1       1 <0>        -0.4096
     19 C18        -1.2041    0.3916    2.6908 C.3       1 <0>         0.4611
     20 F1          0.0819    0.8844    2.4450 F         1 <0>        -0.1506
     21 F2         -1.7580    1.0601    3.7878 F         1 <0>        -0.1660
     22 F3         -1.1338   -0.9782    2.9663 F         1 <0>        -0.1723
     23 O1         -2.1981    2.0217    1.2092 O.3       1 <0>        -0.5184
     24 C19         0.9894   -0.0801    0.7157 C.ar      1 <0>        -0.0479
     25 C20         0.7139   -1.2311    1.4287 C.ar      1 <0>        -0.1585
     26 C21         1.7174   -1.8576    2.1475 C.ar      1 <0>         0.0742
     27 C22         2.9983   -1.3317    2.1535 C.ar      1 <0>        -0.1271
     28 C23         3.2765   -0.1812    1.4416 C.ar      1 <0>        -0.1715
     29 C24         2.2732    0.4446    0.7161 C.ar      1 <0>         0.1172
     30 O2          2.5469    1.5738    0.0105 O.3       1 <0>        -0.3016
     31 C25         3.8907    2.0577    0.0563 C.3       1 <0>         0.0210
     32 F4          1.4466   -2.9830    2.8443 F         1 <0>        -0.1398
     33 H1          1.1000    1.0290   -1.8022 H         1 <0>         0.0696
     34 H2          0.3209   -0.5712   -1.8239 H         1 <0>         0.0533
     35 H3         -0.6438    0.8925   -2.1321 H         1 <0>         0.0596
     36 H4         -0.9851    2.5619   -0.2076 H         1 <0>         0.0580
     37 H5         -0.3224    2.1668    1.3964 H         1 <0>         0.0956
     38 H6          0.7757    2.5645    0.0531 H         1 <0>         0.0607
     39 H7         -2.1078    0.0332   -0.6144 H         1 <0>         0.0988
     40 H8         -1.2858   -1.1187    0.4653 H         1 <0>         0.0960
     41 H9         -4.0964    0.1908    0.8274 H         1 <0>         0.1066
     42 H10        -3.3825   -1.0412    1.8955 H         1 <0>         0.1030
     43 H11        -3.4450   -0.8001    4.2300 H         1 <0>         0.1321
     44 H12        -4.4343    0.2267    6.2204 H         1 <0>         0.1374
     45 H13        -4.4666    2.0525    0.6005 H         1 <0>         0.1257
     46 H14        -5.6763    4.1551    0.3758 H         1 <0>         0.1278
     47 H15        -6.6919    5.2398    2.3329 H         1 <0>         0.1274
     48 H16        -6.5272    4.2283    4.5459 H         1 <0>         0.1245
     49 H17        -2.7421    2.2408    0.4403 H         1 <0>         0.3849
     50 H18        -0.2849   -1.6420    1.4254 H         1 <0>         0.1557
     51 H19         3.7801   -1.8211    2.7153 H         1 <0>         0.1355
     52 H20         4.2756    0.2290    1.4467 H         1 <0>         0.1365
     53 H21         4.1603    2.2843    1.0878 H         1 <0>         0.0554
     54 H22         4.5646    1.2963   -0.3365 H         1 <0>         0.0549
     55 H23         3.9722    2.9615   -0.5475 H         1 <0>         0.1010
@<TRIPOS>BOND
     1    1    2 1
     2    1   33 1
     3    1   34 1
     4    1   35 1
     5    2    3 1
     6    2    4 1
     7    2   24 1
     8    3   36 1
     9    3   37 1
    10    3   38 1
    11    4    5 1
    12    4   39 1
    13    4   40 1
    14    5    6 1
    15    5   19 1
    16    5   23 1
    17    6    7 1
    18    6   41 1
    19    6   42 1
    20    7   12 ar
    21    7    8 ar
    22    8    9 ar
    23    8   43 1
    24    9   10 ar
    25    9   44 1
    26   10   11 ar
    27   10   17 1
    28   11   16 ar
    29   11   12 ar
    30   12   13 ar
    31   13   14 ar
    32   13   45 1
    33   14   15 ar
    34   14   46 1
    35   15   16 ar
    36   15   47 1
    37   16   48 1
    38   17   18 3
    39   19   20 1
    40   19   21 1
    41   19   22 1
    42   23   49 1
    43   24   29 ar
    44   24   25 ar
    45   25   26 ar
    46   25   50 1
    47   26   27 ar
    48   26   32 1
    49   27   28 ar
    50   27   51 1
    51   28   29 ar
    52   28   52 1
    53   29   30 1
    54   30   31 1
    55   31   53 1
    56   31   54 1
    57   31   55 1
@<TRIPOS>MOLECULE
CHEMBL564782
   44    46     0     0     0
SMALL
USER_CHARGES

@<TRIPOS>ATOM
      1 C1          0.3074    1.4632   -0.3062 C.3       1 <0>        -0.1851
      2 C2          0.1039   -0.0401   -0.1075 C.3       1 <0>         0.2126
      3 C3          0.6647   -0.4504    1.2298 C.2       1 <0>         0.0648
      4 C4          1.6020   -1.4026    1.4436 C.2       1 <0>        -0.2424
      5 C5          1.8407   -1.4702    2.8201 C.2       1 <0>         0.0453
      6 N1          1.0741   -0.5902    3.4115 N.2       1 <0>        -0.2889
      7 N2          0.3262    0.0699    2.4280 N.pl3     1 <0>        -0.3644
      8 C6         -0.6529    1.1348    2.6597 C.3       1 <0>         0.0868
      9 N3          0.7953   -0.7714   -1.1721 N.pl3     1 <0>        -0.5959
     10 C7          0.0489   -1.6944   -2.0307 C.3       1 <0>         0.1554
     11 C8          0.1923   -3.0986   -1.5030 C.ar      1 <0>        -0.1071
     12 C9          1.1348   -3.9496   -2.0494 C.ar      1 <0>        -0.0910
     13 C10         1.2666   -5.2376   -1.5655 C.ar      1 <0>        -0.1127
     14 C11         0.4558   -5.6757   -0.5347 C.ar      1 <0>        -0.0986
     15 C12        -0.4868   -4.8259    0.0123 C.ar      1 <0>        -0.1101
     16 C13        -0.6152   -3.5346   -0.4679 C.ar      1 <0>        -0.0104
     17 Cl1        -1.7946   -2.4644    0.2232 Cl        1 <0>        -0.0701
     18 C14         2.1612   -0.5893   -1.3678 C.ar      1 <0>         0.2608
     19 C15         2.8940    0.1846   -0.4719 C.ar      1 <0>        -0.1827
     20 C16         4.2446    0.3672   -0.6615 C.ar      1 <0>        -0.0130
     21 C17         4.8821   -0.2255   -1.7560 C.ar      1 <0>        -0.0785
     22 C18         4.1432   -1.0027   -2.6548 C.ar      1 <0>         0.0543
     23 C19         2.7918   -1.1856   -2.4548 C.ar      1 <0>        -0.1917
     24 Cl2         4.9286   -1.7407   -4.0157 Cl        1 <0>        -0.0508
     25 C20         6.2874   -0.0371   -1.9566 C.1       1 <0>         0.2544
     26 N4          7.4022    0.1124   -2.1158 N.1       1 <0>        -0.4124
     27 H1          1.3023    1.7441    0.0395 H         1 <0>         0.0761
     28 H2          0.2083    1.7066   -1.3641 H         1 <0>         0.0801
     29 H3         -0.4433    2.0101    0.2643 H         1 <0>         0.0747
     30 H4         -0.9610   -0.2701   -0.1410 H         1 <0>         0.1105
     31 H5          2.0810   -2.0044    0.6854 H         1 <0>         0.1426
     32 H6          2.5370   -2.1346    3.3103 H         1 <0>         0.1803
     33 H7         -1.6538    0.7051    2.7023 H         1 <0>         0.0733
     34 H8         -0.4311    1.6333    3.6032 H         1 <0>         0.0934
     35 H9         -0.6024    1.8581    1.8458 H         1 <0>         0.0907
     36 H10        -1.0045   -1.4141   -2.0362 H         1 <0>         0.0970
     37 H11         0.4431   -1.6456   -3.0458 H         1 <0>         0.0963
     38 H12         1.7682   -3.6080   -2.8548 H         1 <0>         0.1325
     39 H13         2.0028   -5.9021   -1.9929 H         1 <0>         0.1310
     40 H14         0.5590   -6.6823   -0.1573 H         1 <0>         0.1324
     41 H15        -1.1202   -5.1684    0.8172 H         1 <0>         0.1320
     42 H16         2.4014    0.6425    0.3732 H         1 <0>         0.1459
     43 H17         4.8117    0.9681    0.0341 H         1 <0>         0.1397
     44 H18         2.2211   -1.7889   -3.1453 H         1 <0>         0.1429
@<TRIPOS>BOND
     1    1    2 1
     2    1   27 1
     3    1   28 1
     4    1   29 1
     5    2    3 1
     6    2    9 1
     7    2   30 1
     8    3    7 1
     9    3    4 2
    10    4    5 1
    11    4   31 1
    12    5    6 2
    13    5   32 1
    14    6    7 1
    15    7    8 1
    16    8   33 1
    17    8   34 1
    18    8   35 1
    19    9   10 1
    20    9   18 1
    21   10   11 1
    22   10   36 1
    23   10   37 1
    24   11   16 ar
    25   11   12 ar
    26   12   13 ar
    27   12   38 1
    28   13   14 ar
    29   13   39 1
    30   14   15 ar
    31   14   40 1
    32   15   16 ar
    33   15   41 1
    34   16   17 1
    35   18   23 ar
    36   18   19 ar
    37   19   20 ar
    38   19   42 1
    39   20   21 ar
    40   20   43 1
    41   21   22 ar
    42   21   25 1
    43   22   23 ar
    44   22   24 1
    45   23   44 1
    46   25   26 3
@<TRIPOS>MOLECULE
CHEMBL564782__1
   44    46     0     0     0
SMALL
USER_CHARGES

@<TRIPOS>ATOM
      1 C1          0.2934    1.3226   -0.0288 C.3       1 <0>        -0.1850
      2 C2          0.1324   -0.1927    0.1084 C.3       1 <0>         0.2109
      3 C3          0.7607   -0.6497    1.3997 C.2       1 <0>         0.0561
      4 C4          0.1526   -1.3669    2.3728 C.2       1 <0>        -0.2481
      5 C5          1.0828   -1.5803    3.3953 C.2       1 <0>         0.0480
      6 N1          2.2090   -1.0117    3.0485 N.2       1 <0>        -0.2878
      7 N2          2.0323   -0.4222    1.7901 N.pl3     1 <0>        -0.3656
      8 C6          3.0475    0.3143    1.0331 C.3       1 <0>         0.0944
      9 N3         -1.2923   -0.5341    0.1108 N.pl3     1 <0>        -0.5949
     10 C7         -1.8382   -1.4067   -0.9317 C.3       1 <0>         0.1571
     11 C8         -2.3792   -0.5651   -2.0587 C.ar      1 <0>        -0.1036
     12 C9         -3.7314   -0.2860   -2.1255 C.ar      1 <0>        -0.0924
     13 C10        -4.2278    0.4858   -3.1591 C.ar      1 <0>        -0.1110
     14 C11        -3.3723    0.9793   -4.1267 C.ar      1 <0>        -0.1004
     15 C12        -2.0202    0.7009   -4.0609 C.ar      1 <0>        -0.1098
     16 C13        -1.5219   -0.0670   -3.0233 C.ar      1 <0>        -0.0205
     17 Cl1         0.1773   -0.4116   -2.9364 Cl        1 <0>        -0.0681
     18 C14        -2.1272   -0.0295    1.1036 C.ar      1 <0>         0.2592
     19 C15        -3.4932   -0.2957    1.0636 C.ar      1 <0>        -0.1972
     20 C16        -4.3223    0.2012    2.0430 C.ar      1 <0>        -0.0104
     21 C17        -3.7918    0.9747    3.0802 C.ar      1 <0>        -0.0805
     22 C18        -2.4186    1.2407    3.1179 C.ar      1 <0>         0.0522
     23 C19        -1.5938    0.7347    2.1363 C.ar      1 <0>        -0.1794
     24 Cl2        -1.7538    2.2007    4.4024 Cl        1 <0>        -0.0505
     25 C20        -4.6517    1.4938    4.1008 C.1       1 <0>         0.2547
     26 N4         -5.3339    1.9056    4.9105 N.1       1 <0>        -0.4129
     27 H1          1.3458    1.5870    0.0746 H         1 <0>         0.0716
     28 H2         -0.0661    1.6390   -1.0080 H         1 <0>         0.0748
     29 H3         -0.2846    1.8213    0.7491 H         1 <0>         0.0777
     30 H4          0.6232   -0.6876   -0.7296 H         1 <0>         0.1134
     31 H5         -0.8704   -1.7130    2.3620 H         1 <0>         0.1462
     32 H6          0.9025   -2.1206    4.3129 H         1 <0>         0.1833
     33 H7          3.0038    1.3705    1.2987 H         1 <0>         0.0784
     34 H8          4.0355   -0.0798    1.2716 H         1 <0>         0.0926
     35 H9          2.8588    0.2000   -0.0344 H         1 <0>         0.0850
     36 H10        -1.0500   -2.0576   -1.3102 H         1 <0>         0.0969
     37 H11        -2.6412   -2.0138   -0.5137 H         1 <0>         0.0977
     38 H12        -4.4002   -0.6715   -1.3702 H         1 <0>         0.1353
     39 H13        -5.2844    0.7033   -3.2111 H         1 <0>         0.1321
     40 H14        -3.7607    1.5820   -4.9343 H         1 <0>         0.1336
     41 H15        -1.3521    1.0862   -4.8170 H         1 <0>         0.1345
     42 H16        -3.9028   -0.8928    0.2623 H         1 <0>         0.1397
     43 H17        -5.3818   -0.0058    2.0105 H         1 <0>         0.1420
     44 H18        -0.5331    0.9354    2.1665 H         1 <0>         0.1505
@<TRIPOS>BOND
     1    1    2 1
     2    1   27 1
     3    1   28 1
     4    1   29 1
     5    2    3 1
     6    2    9 1
     7    2   30 1
     8    3    7 1
     9    3    4 2
    10    4    5 1
    11    4   31 1
    12    5    6 2
    13    5   32 1
    14    6    7 1
    15    7    8 1
    16    8   33 1
    17    8   34 1
    18    8   35 1
    19    9   10 1
    20    9   18 1
    21   10   11 1
    22   10   36 1
    23   10   37 1
    24   11   16 ar
    25   11   12 ar
    26   12   13 ar
    27   12   38 1
    28   13   14 ar
    29   13   39 1
    30   14   15 ar
    31   14   40 1
    32   15   16 ar
    33   15   41 1
    34   16   17 1
    35   18   23 ar
    36   18   19 ar
    37   19   20 ar
    38   19   42 1
    39   20   21 ar
    40   20   43 1
    41   21   22 ar
    42   21   25 1
    43   22   23 ar
    44   22   24 1
    45   23   44 1
    46   25   26 3
@<TRIPOS>MOLECULE
CHEMBL411063
   73    79     0     0     0
SMALL
USER_CHARGES

@<TRIPOS>ATOM
      1 C1          1.7869    1.4931    1.1259 C.3       1 <0>        -0.1483
      2 C2          1.4285    0.0382    0.8165 C.3       1 <0>        -0.0743
      3 H1          2.1341   -0.3755    0.0960 H         1 <0>         0.0738
      4 C3         -0.0126   -0.0465    0.2575 C.3       1 <0>        -0.1097
      5 C4         -0.8004   -0.8589    1.2831 C.3       1 <0>        -0.0783
      6 H2         -1.2156   -0.1957    2.0419 H         1 <0>         0.0775
      7 C5         -1.8982   -1.7438    0.7124 C.3       1 <0>        -0.0461
      8 H3         -1.4679   -2.3912   -0.0517 H         1 <0>         0.0970
      9 C6         -2.9731   -0.8785    0.0767 C.3       1 <0>        -0.1111
     10 C7         -4.2536   -1.6724   -0.1791 C.3       1 <0>        -0.0968
     11 C8         -4.7176   -2.2370    1.1401 C.2       1 <0>         0.0258
     12 C9         -6.0207   -2.2182    1.4980 C.2       1 <0>        -0.2476
     13 C10        -6.4202   -2.6609    2.7707 C.2       1 <0>         0.3868
     14 O1         -7.6035   -2.7823    3.0170 O.2       1 <0>        -0.4698
     15 C11        -5.4053   -2.9876    3.8332 C.3       1 <0>        -0.1658
     16 C12        -4.1842   -3.6584    3.1979 C.3       1 <0>        -0.0821
     17 C13        -3.7161   -2.8191    2.0327 C.2       1 <0>        -0.1246
     18 C14        -2.4257   -2.5986    1.8366 C.2       1 <0>        -0.0484
     19 C15        -1.4647   -3.2946    2.7798 C.3       1 <0>        -0.0318
     20 H4         -2.0043   -3.6100    3.6728 H         1 <0>         0.1078
     21 C16        -0.3198   -2.3546    3.1871 C.3       1 <0>        -0.1011
     22 C17         0.2763   -1.7789    1.9172 C.3       1 <0>        -0.0492
     23 C18         1.4440   -0.8031    2.1206 C.3       1 <0>        -0.1198
     24 H5          1.2692   -0.1693    2.9900 H         1 <0>         0.0989
     25 C19         2.7459   -1.5498    2.2572 C.2       1 <0>         0.3904
     26 O2          2.8959   -2.6093    1.6975 O.2       1 <0>        -0.4374
     27 C20         3.8606   -0.9742    3.0922 C.3       1 <0>        -0.2239
     28 C21         5.2778   -1.0380    2.5192 C.3       1 <0>        -0.1497
     29 C22         4.8801   -1.9519    3.6801 C.3       1 <0>        -0.1517
     30 C23         0.6544   -2.9093    0.9579 C.3       1 <0>        -0.1525
     31 C24        -0.8890   -4.5072    2.0948 C.ar      1 <0>        -0.0275
     32 C25         0.2182   -5.1403    2.6302 C.ar      1 <0>        -0.1266
     33 C26         0.7497   -6.2512    2.0071 C.ar      1 <0>        -0.0601
     34 C27         0.1686   -6.7349    0.8362 C.ar      1 <0>        -0.0563
     35 C28        -0.9469   -6.0929    0.3013 C.ar      1 <0>        -0.0645
     36 C29        -1.4732   -4.9862    0.9360 C.ar      1 <0>        -0.1359
     37 C30         0.7355   -7.9280    0.1618 C.ar      1 <0>         0.3627
     38 N1          1.7941   -8.5277    0.6890 N.ar      1 <0>        -0.5138
     39 C31         2.3237   -9.5931    0.1130 C.ar      1 <0>         0.1535
     40 C32         1.7587  -10.0816   -1.0556 C.ar      1 <0>        -0.2369
     41 C33         0.6522   -9.4302   -1.5799 C.ar      1 <0>         0.1533
     42 N2          0.1684   -8.3729   -0.9512 N.ar      1 <0>        -0.5146
     43 H6          2.7880    1.5373    1.5548 H         1 <0>         0.0566
     44 H7          1.7595    2.0775    0.2063 H         1 <0>         0.0590
     45 H8          1.0686    1.9009    1.8372 H         1 <0>         0.0588
     46 H9         -0.4385    0.9521    0.1595 H         1 <0>         0.0710
     47 H10        -0.0137   -0.5541   -0.7071 H         1 <0>         0.0686
     48 H11        -3.1981   -0.0444    0.7414 H         1 <0>         0.0686
     49 H12        -2.6015   -0.4873   -0.8704 H         1 <0>         0.0772
     50 H13        -5.0201   -1.0146   -0.5891 H         1 <0>         0.0856
     51 H14        -4.0511   -2.4845   -0.8774 H         1 <0>         0.0890
     52 H15        -6.7621   -1.8592    0.7995 H         1 <0>         0.1347
     53 H16        -5.0953   -2.0696    4.3324 H         1 <0>         0.0990
     54 H17        -5.8504   -3.6631    4.5637 H         1 <0>         0.0948
     55 H18        -3.3855   -3.7365    3.9356 H         1 <0>         0.0934
     56 H19        -4.4563   -4.6532    2.8453 H         1 <0>         0.0825
     57 H20        -0.7064   -1.5453    3.8066 H         1 <0>         0.0725
     58 H21         0.4408   -2.9114    3.7345 H         1 <0>         0.0730
     59 H22         3.5978   -0.1013    3.6897 H         1 <0>         0.1214
     60 H23         5.4040   -1.4963    1.5383 H         1 <0>         0.0998
     61 H24         5.9477   -0.2069    2.7397 H         1 <0>         0.1035
     62 H25         5.2883   -1.7220    4.6643 H         1 <0>         0.1028
     63 H26         4.7446   -3.0114    3.4629 H         1 <0>         0.1037
     64 H27         1.2852   -2.5143    0.1616 H         1 <0>         0.0477
     65 H28         1.1976   -3.6815    1.5025 H         1 <0>         0.0840
     66 H29        -0.2503   -3.3374    0.5262 H         1 <0>         0.0688
     67 H30         0.6678   -4.7644    3.5373 H         1 <0>         0.1263
     68 H31         1.6143   -6.7445    2.4258 H         1 <0>         0.1344
     69 H32        -1.4009   -6.4633   -0.6059 H         1 <0>         0.1339
     70 H33        -2.3402   -4.4906    0.5248 H         1 <0>         0.1275
     71 H34         3.1862  -10.0771    0.5470 H         1 <0>         0.1705
     72 H35         2.1717  -10.9502   -1.5469 H         1 <0>         0.1493
     73 H36         0.1889   -9.7851   -2.4887 H         1 <0>         0.1705
@<TRIPOS>BOND
     1    1    2 1
     2    1   43 1
     3    1   44 1
     4    1   45 1
     5    2    3 1
     6    2   23 1
     7    2    4 1
     8    4    5 1
     9    4   46 1
    10    4   47 1
    11    5    6 1
    12    5   22 1
    13    5    7 1
    14    7    8 1
    15    7   18 1
    16    7    9 1
    17    9   10 1
    18    9   48 1
    19    9   49 1
    20   10   11 1
    21   10   50 1
    22   10   51 1
    23   11   17 1
    24   11   12 2
    25   12   13 1
    26   12   52 1
    27   13   14 2
    28   13   15 1
    29   15   16 1
    30   15   53 1
    31   15   54 1
    32   16   17 1
    33   16   55 1
    34   16   56 1
    35   17   18 2
    36   18   19 1
    37   19   20 1
    38   19   21 1
    39   19   31 1
    40   21   22 1
    41   21   57 1
    42   21   58 1
    43   22   23 1
    44   22   30 1
    45   23   24 1
    46   23   25 1
    47   25   26 2
    48   25   27 1
    49   27   29 1
    50   27   28 1
    51   27   59 1
    52   28   29 1
    53   28   60 1
    54   28   61 1
    55   29   62 1
    56   29   63 1
    57   30   64 1
    58   30   65 1
    59   30   66 1
    60   31   36 ar
    61   31   32 ar
    62   32   33 ar
    63   32   67 1
    64   33   34 ar
    65   33   68 1
    66   34   35 ar
    67   34   37 1
    68   35   36 ar
    69   35   69 1
    70   36   70 1
    71   37   42 ar
    72   37   38 ar
    73   38   39 ar
    74   39   40 ar
    75   39   71 1
    76   40   41 ar
    77   40   72 1
    78   41   42 ar
    79   41   73 1
@<TRIPOS>MOLECULE
CHEMBL550170
   43    45     0     0     0
SMALL
USER_CHARGES

@<TRIPOS>ATOM
      1 C1          2.2687    0.3741    2.1534 C.3       1 <0>        -0.0874
      2 C2          1.6980   -0.8678    1.5187 C.2       1 <0>         0.1031
      3 C3          1.4561   -1.0574    0.1462 C.2       1 <0>        -0.2803
      4 C4          0.9449   -2.2921   -0.0224 C.2       1 <0>         0.0602
      5 O1          0.8600   -2.8740    1.1836 O.3       1 <0>        -0.0632
      6 N1          1.3479   -1.9555    2.1449 N.2       1 <0>        -0.3199
      7 C5          0.5390   -2.9110   -1.3351 C.3       1 <0>         0.2390
      8 C6         -0.9787   -2.8082   -1.4998 C.3       1 <0>        -0.1714
      9 N2          0.9379   -4.3205   -1.3545 N.pl3     1 <0>        -0.6565
     10 C7          1.7674   -4.8320   -2.4484 C.3       1 <0>         0.1760
     11 C8          0.8852   -5.4600   -3.4964 C.ar      1 <0>        -0.1000
     12 C9          0.7006   -6.8298   -3.5144 C.ar      1 <0>        -0.0904
     13 C10        -0.1085   -7.4059   -4.4755 C.ar      1 <0>        -0.1128
     14 C11        -0.7338   -6.6126   -5.4196 C.ar      1 <0>        -0.1035
     15 C12        -0.5500   -5.2430   -5.4027 C.ar      1 <0>        -0.1112
     16 C13         0.2553   -4.6651   -4.4372 C.ar      1 <0>        -0.0216
     17 Cl1         0.4814   -2.9441   -4.4113 Cl        1 <0>        -0.0690
     18 C14         0.5290   -5.1737   -0.3336 C.ar      1 <0>         0.2151
     19 C15        -0.7911   -5.6134   -0.2833 C.ar      1 <0>        -0.1231
     20 C16        -1.1998   -6.4569    0.7241 C.ar      1 <0>        -0.0500
     21 C17        -0.2876   -6.8730    1.6990 C.ar      1 <0>        -0.0247
     22 C18         1.0384   -6.4295    1.6460 C.ar      1 <0>         0.0193
     23 C19         1.4415   -5.5892    0.6305 C.ar      1 <0>        -0.1057
     24 Cl2         2.1755   -6.9419    2.8534 Cl        1 <0>        -0.0485
     25 C20        -0.7096   -7.7504    2.7491 C.1       1 <0>         0.2484
     26 N3         -1.0444   -8.4464    3.5822 N.1       1 <0>        -0.3979
     27 H1          3.3556    0.2986    2.1866 H         1 <0>         0.0891
     28 H2          1.9830    1.2466    1.5658 H         1 <0>         0.0872
     29 H3          1.8804    0.4755    3.1668 H         1 <0>         0.0816
     30 H4          1.6466   -0.3379   -0.6363 H         1 <0>         0.1571
     31 H5          1.0298   -2.3832   -2.1528 H         1 <0>         0.1204
     32 H6         -1.2635   -1.7606   -1.5964 H         1 <0>         0.0708
     33 H7         -1.2848   -3.3519   -2.3936 H         1 <0>         0.0785
     34 H8         -1.4689   -3.2390   -0.6268 H         1 <0>         0.0672
     35 H9          2.3305   -4.0109   -2.8919 H         1 <0>         0.0904
     36 H10         2.4595   -5.5795   -2.0606 H         1 <0>         0.0849
     37 H11         1.1891   -7.4501   -2.7774 H         1 <0>         0.1306
     38 H12        -0.2521   -8.4762   -4.4894 H         1 <0>         0.1294
     39 H13        -1.3656   -7.0633   -6.1706 H         1 <0>         0.1317
     40 H14        -1.0382   -4.6234   -6.1404 H         1 <0>         0.1331
     41 H15        -1.4956   -5.2917   -1.0361 H         1 <0>         0.1401
     42 H16        -2.2242   -6.7970    0.7621 H         1 <0>         0.1432
     43 H17         2.4657   -5.2496    0.5858 H         1 <0>         0.1407
@<TRIPOS>BOND
     1    1    2 1
     2    1   27 1
     3    1   28 1
     4    1   29 1
     5    2    6 2
     6    2    3 1
     7    3    4 2
     8    3   30 1
     9    4    5 1
    10    4    7 1
    11    5    6 1
    12    7    8 1
    13    7    9 1
    14    7   31 1
    15    8   32 1
    16    8   33 1
    17    8   34 1
    18    9   10 1
    19    9   18 1
    20   10   11 1
    21   10   35 1
    22   10   36 1
    23   11   16 ar
    24   11   12 ar
    25   12   13 ar
    26   12   37 1
    27   13   14 ar
    28   13   38 1
    29   14   15 ar
    30   14   39 1
    31   15   16 ar
    32   15   40 1
    33   16   17 1
    34   18   23 ar
    35   18   19 ar
    36   19   20 ar
    37   19   41 1
    38   20   21 ar
    39   20   42 1
    40   21   22 ar
    41   21   25 1
    42   22   23 ar
    43   22   24 1
    44   23   43 1
    45   25   26 3
@<TRIPOS>MOLECULE
CHEMBL550170__1
   43    45     0     0     0
SMALL
USER_CHARGES

@<TRIPOS>ATOM
      1 C1         -1.5114    1.0099    1.0770 C.3       1 <0>        -0.0876
      2 C2         -1.1438   -0.4210    0.7800 C.2       1 <0>         0.1027
      3 C3         -0.8318   -0.9479   -0.4861 C.2       1 <0>        -0.2798
      4 C4         -0.5592   -2.2586   -0.3389 C.2       1 <0>         0.0611
      5 O1         -0.6886   -2.5656    0.9609 O.3       1 <0>        -0.0625
      6 N1         -1.0542   -1.3849    1.6522 N.2       1 <0>        -0.3207
      7 C5         -0.1765   -3.2130   -1.4406 C.3       1 <0>         0.2412
      8 C6          1.3336   -3.4559   -1.4032 C.3       1 <0>        -0.1743
      9 N2         -0.8804   -4.4839   -1.2521 N.pl3     1 <0>        -0.6539
     10 C7         -1.7551   -5.0003   -2.3078 C.3       1 <0>         0.1759
     11 C8         -0.9356   -5.7831   -3.3011 C.ar      1 <0>        -0.1039
     12 C9         -0.5072   -5.1822   -4.4700 C.ar      1 <0>        -0.0956
     13 C10         0.2445   -5.9001   -5.3811 C.ar      1 <0>        -0.1159
     14 C11         0.5684   -7.2194   -5.1240 C.ar      1 <0>        -0.1031
     15 C12         0.1407   -7.8212   -3.9559 C.ar      1 <0>        -0.1114
     16 C13        -0.6071   -7.1014   -3.0407 C.ar      1 <0>        -0.0200
     17 Cl1        -1.1392   -7.8547   -1.5700 Cl        1 <0>        -0.0597
     18 C14        -0.7181   -5.2008   -0.0701 C.ar      1 <0>         0.2239
     19 C15        -1.7763   -5.3070    0.8284 C.ar      1 <0>        -0.1154
     20 C16        -1.6203   -6.0147    1.9981 C.ar      1 <0>        -0.0451
     21 C17        -0.3967   -6.6282    2.2847 C.ar      1 <0>        -0.0296
     22 C18         0.6651   -6.5197    1.3799 C.ar      1 <0>         0.0175
     23 C19         0.4992   -5.8139    0.2077 C.ar      1 <0>        -0.1197
     24 Cl2         2.1867   -7.2785    1.7300 Cl        1 <0>        -0.0512
     25 C20        -0.2306   -7.3651    3.5013 C.1       1 <0>         0.2494
     26 N3         -0.0989   -7.9496    4.4664 N.1       1 <0>        -0.4001
     27 H1         -0.6080    1.5794    1.2952 H         1 <0>         0.0891
     28 H2         -2.0139    1.4430    0.2121 H         1 <0>         0.0873
     29 H3         -2.1783    1.0424    1.9386 H         1 <0>         0.0815
     30 H4         -0.8143   -0.3972   -1.4150 H         1 <0>         0.1579
     31 H5         -0.4518   -2.7846   -2.4043 H         1 <0>         0.1195
     32 H6          1.6278   -3.7609   -0.3989 H         1 <0>         0.0692
     33 H7          1.5928   -4.2422   -2.1122 H         1 <0>         0.0781
     34 H8          1.8561   -2.5378   -1.6718 H         1 <0>         0.0730
     35 H9         -2.5109   -5.6508   -1.8675 H         1 <0>         0.0905
     36 H10        -2.2429   -4.1679   -2.8150 H         1 <0>         0.0865
     37 H11        -0.7601   -4.1518   -4.6714 H         1 <0>         0.1301
     38 H12         0.5788   -5.4303   -6.2943 H         1 <0>         0.1288
     39 H13         1.1555   -7.7799   -5.8365 H         1 <0>         0.1311
     40 H14         0.3934   -8.8519   -3.7553 H         1 <0>         0.1326
     41 H15        -2.7211   -4.8329    0.6071 H         1 <0>         0.1365
     42 H16        -2.4419   -6.0960    2.6944 H         1 <0>         0.1425
     43 H17         1.3165   -5.7331   -0.4937 H         1 <0>         0.1437
@<TRIPOS>BOND
     1    1    2 1
     2    1   27 1
     3    1   28 1
     4    1   29 1
     5    2    6 2
     6    2    3 1
     7    3    4 2
     8    3   30 1
     9    4    5 1
    10    4    7 1
    11    5    6 1
    12    7    8 1
    13    7    9 1
    14    7   31 1
    15    8   32 1
    16    8   33 1
    17    8   34 1
    18    9   10 1
    19    9   18 1
    20   10   11 1
    21   10   35 1
    22   10   36 1
    23   11   16 ar
    24   11   12 ar
    25   12   13 ar
    26   12   37 1
    27   13   14 ar
    28   13   38 1
    29   14   15 ar
    30   14   39 1
    31   15   16 ar
    32   15   40 1
    33   16   17 1
    34   18   23 ar
    35   18   19 ar
    36   19   20 ar
    37   19   41 1
    38   20   21 ar
    39   20   42 1
    40   21   22 ar
    41   21   25 1
    42   22   23 ar
    43   22   24 1
    44   23   43 1
    45   25   26 3
@<TRIPOS>MOLECULE
CHEMBL418670
   57    61     0     0     0
SMALL
USER_CHARGES

@<TRIPOS>ATOM
      1 C1         -0.0184    1.5051    0.0103 C.3       1 <0>        -0.1191
      2 C2          0.0021   -0.0041    0.0020 C.2       1 <0>        -0.0595
      3 C3          0.0020   -0.5998   -1.1884 C.2       1 <0>        -0.1678
      4 C4         -0.0632   -2.0892   -1.3561 C.3       1 <0>         0.2141
      5 N1          0.3277   -2.7736   -0.1251 N.pl3     1 <0>        -0.7348
      6 C5          0.0863   -2.2013    1.1185 C.ar      1 <0>         0.2264
      7 C6          0.0246   -0.7927    1.2412 C.ar      1 <0>        -0.0706
      8 C7          0.0569   -0.2631    2.5205 C.ar      1 <0>        -0.0160
      9 C8         -0.3525   -1.0826    3.6120 C.ar      1 <0>        -0.0994
     10 C9         -0.3899   -2.4562    3.4616 C.ar      1 <0>        -0.0507
     11 C10        -0.1123   -3.0099    2.2259 C.ar      1 <0>        -0.1840
     12 C11        -0.7278   -0.3986    4.8685 C.ar      1 <0>        -0.0633
     13 C12        -1.1484   -1.1284    5.9771 C.ar      1 <0>        -0.1184
     14 C13        -1.4996   -0.4720    7.1421 C.ar      1 <0>         0.0784
     15 C14        -1.4365    0.9110    7.2085 C.ar      1 <0>        -0.1221
     16 C15        -1.0178    1.6439    6.1148 C.ar      1 <0>        -0.1072
     17 C16        -0.6566    0.9993    4.9427 C.ar      1 <0>         0.1092
     18 O1         -0.2243    1.7257    3.8751 O.3       1 <0>        -0.2416
     19 C17         0.5389    1.0594    2.9554 C.2       1 <0>         0.0782
     20 C18         1.7086    1.5665    2.5563 C.2       1 <0>        -0.1297
     21 C19         2.1440    2.9264    3.0381 C.3       1 <0>        -0.0533
     22 C20         2.3364    3.8552    1.8377 C.3       1 <0>        -0.1082
     23 C21         2.7784    5.2359    2.3268 C.3       1 <0>        -0.1195
     24 C22         4.0986    5.1082    3.0895 C.3       1 <0>        -0.1209
     25 C23         3.9062    4.1793    4.2900 C.3       1 <0>        -0.1194
     26 C24         3.4642    2.7986    3.8008 C.3       1 <0>        -0.1099
     27 F1         -1.9037   -1.1808    8.2191 F         1 <0>        -0.1370
     28 C25        -1.4944   -2.4937   -1.7286 C.3       1 <0>        -0.1602
     29 C26         0.8791   -2.5106   -2.4899 C.3       1 <0>        -0.1547
     30 H1          1.0042    1.8824    0.0026 H         1 <0>         0.0727
     31 H2         -0.5456    1.8662   -0.8727 H         1 <0>         0.0670
     32 H3         -0.5286    1.8566    0.9071 H         1 <0>         0.0693
     33 H4          0.0523    0.0266   -2.0731 H         1 <0>         0.1272
     34 H5          0.7664   -3.6477   -0.1755 H         1 <0>         0.4048
     35 H6         -0.6322   -3.0950    4.2972 H         1 <0>         0.1321
     36 H7         -0.0493   -4.0836    2.1200 H         1 <0>         0.1292
     37 H8         -1.2010   -2.2059    5.9294 H         1 <0>         0.1416
     38 H9         -1.7163    1.4181    8.1197 H         1 <0>         0.1454
     39 H10        -0.9731    2.7215    6.1735 H         1 <0>         0.1453
     40 H11         2.3422    1.0018    1.8884 H         1 <0>         0.1339
     41 H12         1.3814    3.3392    3.6985 H         1 <0>         0.0847
     42 H13         3.0990    3.4424    1.1773 H         1 <0>         0.0629
     43 H14         1.3959    3.9462    1.2943 H         1 <0>         0.0639
     44 H15         2.9154    5.8977    1.4716 H         1 <0>         0.0626
     45 H16         2.0158    5.6488    2.9872 H         1 <0>         0.0625
     46 H17         4.8612    4.6953    2.4292 H         1 <0>         0.0612
     47 H18         4.4135    6.0918    3.4380 H         1 <0>         0.0609
     48 H19         4.8468    4.0883    4.8333 H         1 <0>         0.0621
     49 H20         3.1436    4.5922    4.9503 H         1 <0>         0.0622
     50 H21         3.3272    2.1369    4.6560 H         1 <0>         0.0611
     51 H22         4.2268    2.3858    3.1405 H         1 <0>         0.0628
     52 H23        -1.7778   -2.0082   -2.6624 H         1 <0>         0.0671
     53 H24        -1.5459   -3.5755   -1.8513 H         1 <0>         0.0612
     54 H25        -2.1770   -2.1850   -0.9368 H         1 <0>         0.0569
     55 H26         1.8988   -2.2145   -2.2439 H         1 <0>         0.0631
     56 H27         0.8352   -3.5924   -2.6157 H         1 <0>         0.0633
     57 H28         0.5731   -2.0244   -3.4163 H         1 <0>         0.0741
@<TRIPOS>BOND
     1    1    2 1
     2    1   30 1
     3    1   31 1
     4    1   32 1
     5    2    7 1
     6    2    3 2
     7    3    4 1
     8    3   33 1
     9    4    5 1
    10    4   28 1
    11    4   29 1
    12    5    6 1
    13    5   34 1
    14    6   11 ar
    15    6    7 ar
    16    7    8 ar
    17    8   19 1
    18    8    9 ar
    19    9   10 ar
    20    9   12 1
    21   10   11 ar
    22   10   35 1
    23   11   36 1
    24   12   17 ar
    25   12   13 ar
    26   13   14 ar
    27   13   37 1
    28   14   15 ar
    29   14   27 1
    30   15   16 ar
    31   15   38 1
    32   16   17 ar
    33   16   39 1
    34   17   18 1
    35   18   19 1
    36   19   20 2
    37   20   21 1
    38   20   40 1
    39   21   26 1
    40   21   22 1
    41   21   41 1
    42   22   23 1
    43   22   42 1
    44   22   43 1
    45   23   24 1
    46   23   44 1
    47   23   45 1
    48   24   25 1
    49   24   46 1
    50   24   47 1
    51   25   26 1
    52   25   48 1
    53   25   49 1
    54   26   50 1
    55   26   51 1
    56   28   52 1
    57   28   53 1
    58   28   54 1
    59   29   55 1
    60   29   56 1
    61   29   57 1
@<TRIPOS>MOLECULE
CHEMBL164080
   43    46     0     0     0
SMALL
USER_CHARGES

@<TRIPOS>ATOM
      1 C1         -0.0187    1.5258    0.0104 C.3       1 <0>        -0.1558
      2 C2          0.0021   -0.0041    0.0020 C.3       1 <0>         0.3090
      3 N1         -1.3747   -0.5212    0.0512 N.pl3     1 <0>        -0.7609
      4 C3         -1.5590   -1.8600    0.4216 C.ar      1 <0>         0.2233
      5 C4         -2.7897   -2.4726    0.2251 C.ar      1 <0>        -0.1823
      6 C5         -2.9704   -3.7897    0.5924 C.ar      1 <0>        -0.0623
      7 C6         -1.9160   -4.5026    1.1605 C.ar      1 <0>        -0.0823
      8 C7         -0.6829   -3.8850    1.3557 C.ar      1 <0>        -0.0528
      9 C8         -0.5045   -2.5666    0.9860 C.ar      1 <0>        -0.1759
     10 C9          0.8345   -1.9078    1.1955 C.3       1 <0>         0.1728
     11 O1          0.6939   -0.4862    1.1606 O.3       1 <0>        -0.3660
     12 C10         1.3985   -2.3275    2.5554 C.3       1 <0>        -0.0995
     13 C11         2.7592   -1.6617    2.7695 C.3       1 <0>        -0.1179
     14 C12         3.7213   -2.1002    1.6636 C.3       1 <0>        -0.1196
     15 C13         3.1578   -1.6847    0.3033 C.3       1 <0>        -0.1161
     16 C14         1.7965   -2.3496    0.0900 C.3       1 <0>        -0.1365
     17 C15        -2.1074   -5.9199    1.5580 C.2       1 <0>        -0.0854
     18 C16        -3.3249   -6.5529    1.3675 C.2       1 <0>        -0.0672
     19 C17        -3.3883   -7.8728    1.7750 C.2       1 <0>        -0.1594
     20 S1         -1.7444   -8.1559    2.4013 S.3       1 <0>         0.2734
     21 C18        -1.0788   -6.6399    2.1196 C.2       1 <0>        -0.2337
     22 C19        -4.4937   -8.7808    1.7102 C.1       1 <0>         0.2929
     23 N2         -5.3706   -9.5011    1.6588 N.1       1 <0>        -0.3963
     24 H1          1.0039    1.9031    0.0027 H         1 <0>         0.0809
     25 H2         -0.5459    1.8868   -0.8726 H         1 <0>         0.0769
     26 H3         -0.5289    1.8773    0.9072 H         1 <0>         0.0715
     27 H4          0.4993   -0.3613   -0.8998 H         1 <0>         0.0678
     28 H5         -2.1306    0.0465   -0.1662 H         1 <0>         0.4064
     29 H6         -3.6052   -1.9177   -0.2148 H         1 <0>         0.1251
     30 H7         -3.9269   -4.2676    0.4404 H         1 <0>         0.1256
     31 H8          0.1338   -4.4373    1.7965 H         1 <0>         0.1249
     32 H9          0.7137   -2.0168    3.3445 H         1 <0>         0.0716
     33 H10         1.5158   -3.4109    2.5816 H         1 <0>         0.0770
     34 H11         2.6422   -0.5784    2.7407 H         1 <0>         0.0712
     35 H12         3.1603   -1.9582    3.7387 H         1 <0>         0.0634
     36 H13         4.6905   -1.6254    1.8158 H         1 <0>         0.0632
     37 H14         3.8388   -3.1835    1.6927 H         1 <0>         0.0604
     38 H15         3.0416   -0.6014    0.2737 H         1 <0>         0.0675
     39 H16         3.8426   -1.9982   -0.4847 H         1 <0>         0.0625
     40 H17         1.9124   -3.4330    0.1208 H         1 <0>         0.0750
     41 H18         1.3959   -2.0544   -0.8797 H         1 <0>         0.0628
     42 H19        -4.1719   -6.0468    0.9284 H         1 <0>         0.1513
     43 H20        -0.0738   -6.3063    2.3321 H         1 <0>         0.1933
@<TRIPOS>BOND
     1    1    2 1
     2    1   24 1
     3    1   25 1
     4    1   26 1
     5    2   11 1
     6    2    3 1
     7    2   27 1
     8    3    4 1
     9    3   28 1
    10    4    9 ar
    11    4    5 ar
    12    5    6 ar
    13    5   29 1
    14    6    7 ar
    15    6   30 1
    16    7    8 ar
    17    7   17 1
    18    8    9 ar
    19    8   31 1
    20    9   10 1
    21   10   16 1
    22   10   11 1
    23   10   12 1
    24   12   13 1
    25   12   32 1
    26   12   33 1
    27   13   14 1
    28   13   34 1
    29   13   35 1
    30   14   15 1
    31   14   36 1
    32   14   37 1
    33   15   16 1
    34   15   38 1
    35   15   39 1
    36   16   40 1
    37   16   41 1
    38   17   21 2
    39   17   18 1
    40   18   19 2
    41   18   42 1
    42   19   20 1
    43   19   22 1
    44   20   21 1
    45   21   43 1
    46   22   23 3
@<TRIPOS>MOLECULE
CHEMBL164080__1
   43    46     0     0     0
SMALL
USER_CHARGES

@<TRIPOS>ATOM
      1 C1         -0.0187    1.5258    0.0104 C.3       1 <0>        -0.1559
      2 C2          0.0021   -0.0041    0.0020 C.3       1 <0>         0.3089
      3 N1          0.7231   -0.4859   -1.1867 N.pl3     1 <0>        -0.7609
      4 C3          1.1704   -1.8139   -1.1888 C.ar      1 <0>         0.2233
      5 C4          1.6088   -2.3981   -2.3699 C.ar      1 <0>        -0.1823
      6 C5          2.0513   -3.7046   -2.3696 C.ar      1 <0>        -0.0623
      7 C6          2.0569   -4.4351   -1.1826 C.ar      1 <0>        -0.0823
      8 C7          1.6157   -3.8459   -0.0001 C.ar      1 <0>        -0.0528
      9 C8          1.1726   -2.5383   -0.0034 C.ar      1 <0>        -0.1758
     10 C9          0.6918   -1.9102    1.2794 C.3       1 <0>         0.1727
     11 O1          0.6939   -0.4862    1.1607 O.3       1 <0>        -0.3660
     12 C10        -0.7298   -2.3920    1.5791 C.3       1 <0>        -0.1365
     13 C11        -1.2183   -1.7585    2.8831 C.3       1 <0>        -0.1161
     14 C12        -0.2907   -2.1686    4.0286 C.3       1 <0>        -0.1196
     15 C13         1.1313   -1.6900    3.7291 C.3       1 <0>        -0.1179
     16 C14         1.6189   -2.3244    2.4251 C.3       1 <0>        -0.0995
     17 C15         2.5327   -5.8412   -1.1788 C.2       1 <0>        -0.0854
     18 C16         2.9798   -6.4430   -2.3438 C.2       1 <0>        -0.0672
     19 C17         3.3991   -7.7550   -2.2219 C.2       1 <0>        -0.1593
     20 S1          3.1455   -8.0748   -0.4874 S.3       1 <0>         0.2734
     21 C18         2.5463   -6.5780   -0.0174 C.2       1 <0>        -0.2338
     22 C19         3.9076   -8.6332   -3.2323 C.1       1 <0>         0.2929
     23 N2          4.3109   -9.3298   -4.0339 N.1       1 <0>        -0.3963
     24 H1          1.0039    1.9031    0.0027 H         1 <0>         0.0715
     25 H2         -0.5459    1.8868   -0.8726 H         1 <0>         0.0769
     26 H3         -0.5289    1.8773    0.9072 H         1 <0>         0.0809
     27 H4         -1.0185   -0.3868   -0.0042 H         1 <0>         0.0678
     28 H5          0.8840    0.0974   -1.9449 H         1 <0>         0.4064
     29 H6          1.6029   -1.8299   -3.2883 H         1 <0>         0.1251
     30 H7          2.3923   -4.1606   -3.2873 H         1 <0>         0.1256
     31 H8          1.6199   -4.4122    0.9195 H         1 <0>         0.1249
     32 H9         -1.3916   -2.1009    0.7634 H         1 <0>         0.0627
     33 H10        -0.7321   -3.4774    1.6792 H         1 <0>         0.0750
     34 H11        -1.2146   -0.6731    2.7834 H         1 <0>         0.0675
     35 H12        -2.2313   -2.1002    3.0958 H         1 <0>         0.0625
     36 H13        -0.6383   -1.7162    4.9574 H         1 <0>         0.0632
     37 H14        -0.2952   -3.2539    4.1291 H         1 <0>         0.0605
     38 H15         1.1359   -0.6046    3.6290 H         1 <0>         0.0712
     39 H16         1.7925   -1.9824    4.5448 H         1 <0>         0.0634
     40 H17         1.6118   -3.4098    2.5241 H         1 <0>         0.0770
     41 H18         2.6328   -1.9853    2.2128 H         1 <0>         0.0716
     42 H19         2.9993   -5.9200   -3.2885 H         1 <0>         0.1513
     43 H20         2.2403   -6.2659    0.9702 H         1 <0>         0.1933
@<TRIPOS>BOND
     1    1    2 1
     2    1   24 1
     3    1   25 1
     4    1   26 1
     5    2   11 1
     6    2    3 1
     7    2   27 1
     8    3    4 1
     9    3   28 1
    10    4    9 ar
    11    4    5 ar
    12    5    6 ar
    13    5   29 1
    14    6    7 ar
    15    6   30 1
    16    7    8 ar
    17    7   17 1
    18    8    9 ar
    19    8   31 1
    20    9   10 1
    21   10   16 1
    22   10   11 1
    23   10   12 1
    24   12   13 1
    25   12   32 1
    26   12   33 1
    27   13   14 1
    28   13   34 1
    29   13   35 1
    30   14   15 1
    31   14   36 1
    32   14   37 1
    33   15   16 1
    34   15   38 1
    35   15   39 1
    36   16   40 1
    37   16   41 1
    38   17   21 2
    39   17   18 1
    40   18   19 2
    41   18   42 1
    42   19   20 1
    43   19   22 1
    44   20   21 1
    45   21   43 1
    46   22   23 3
@<TRIPOS>MOLECULE
CHEMBL6441
   37    39     0     0     0
SMALL
USER_CHARGES

@<TRIPOS>ATOM
      1 C1          0.4153    1.5079    0.0254 C.3       1 <0>        -0.1244
      2 C2          0.4331    0.0010    0.0171 C.2       1 <0>        -0.0815
      3 C3          0.5365   -0.6573   -1.1336 C.2       1 <0>        -0.1222
      4 C4          0.5535   -2.1655   -1.1268 C.3       1 <0>         0.1674
      5 N1          0.4562   -2.8860    0.1457 N.pl3     1 <0>        -0.6186
      6 C5          0.3535   -2.2130    1.2857 C.ar      1 <0>         0.3557
      7 C6          0.3420   -0.7446    1.2841 C.ar      1 <0>        -0.0913
      8 C7          0.2398   -0.0675    2.4810 C.ar      1 <0>        -0.0066
      9 C8          0.1522   -0.7868    3.6868 C.ar      1 <0>        -0.1781
     10 C9          0.0473   -0.1018    4.9112 C.2       1 <0>         0.0494
     11 C10        -0.0376   -0.8396    6.0804 C.2       1 <0>        -0.2282
     12 C11        -0.0183   -2.2208    6.0273 C.2       1 <0>         0.4488
     13 O1         -0.1017   -2.9263    7.1728 O.3       1 <0>        -0.3630
     14 O2          0.0812   -2.8724    4.8622 O.3       1 <0>        -0.2047
     15 C12         0.1674   -2.2041    3.6899 C.ar      1 <0>         0.2413
     16 C13         0.2600   -2.9037    2.5077 C.ar      1 <0>        -0.2529
     17 C14         0.0283    1.4046    4.9500 C.3       1 <0>         0.5056
     18 F1         -1.0644    1.8762    4.2146 F         1 <0>        -0.1510
     19 F2         -0.0812    1.8356    6.2764 F         1 <0>        -0.1497
     20 F3          1.2129    1.9003    4.3948 F         1 <0>        -0.1507
     21 C15        -0.6019   -2.6399   -2.0105 C.3       1 <0>        -0.1673
     22 C16         1.8497   -2.6112   -1.8068 C.3       1 <0>        -0.1674
     23 H1          1.4355    1.8828    0.1078 H         1 <0>         0.0848
     24 H2         -0.0316    1.8710   -0.9001 H         1 <0>         0.0848
     25 H3         -0.1708    1.8596    0.8744 H         1 <0>         0.0717
     26 H4          0.6073   -0.1163   -2.0656 H         1 <0>         0.1635
     27 H5          0.4665   -3.8559    0.1551 H         1 <0>         0.4326
     28 H6          0.2273    1.0123    2.4927 H         1 <0>         0.1656
     29 H7         -0.1185   -0.3363    7.0325 H         1 <0>         0.2055
     30 H8          0.2715   -3.9836    2.5194 H         1 <0>         0.1719
     31 H9         -0.4640   -2.2610   -3.0232 H         1 <0>         0.0905
     32 H10        -0.6210   -3.7295   -2.0297 H         1 <0>         0.0722
     33 H11        -1.5438   -2.2670   -1.6082 H         1 <0>         0.0692
     34 H12         2.7033   -2.2173   -1.2552 H         1 <0>         0.0691
     35 H13         1.8970   -3.7001   -1.8204 H         1 <0>         0.0722
     36 H14         1.8721   -2.2337   -2.8291 H         1 <0>         0.0906
     37 H15        -0.0812   -3.8848    7.0467 H         1 <0>         0.4459
@<TRIPOS>BOND
     1    1    2 1
     2    1   23 1
     3    1   24 1
     4    1   25 1
     5    2    7 1
     6    2    3 2
     7    3    4 1
     8    3   26 1
     9    4    5 1
    10    4   21 1
    11    4   22 1
    12    5    6 2
    13    5   27 1
    14    6   16 ar
    15    6    7 ar
    16    7    8 ar
    17    8    9 ar
    18    8   28 1
    19    9   15 ar
    20    9   10 2
    21   10   11 1
    22   10   17 1
    23   11   12 2
    24   11   29 1
    25   12   13 1
    26   12   14 1
    27   13   37 1
    28   14   15 1
    29   15   16 ar
    30   16   30 1
    31   17   18 1
    32   17   19 1
    33   17   20 1
    34   21   31 1
    35   21   32 1
    36   21   33 1
    37   22   34 1
    38   22   35 1
    39   22   36 1
@<TRIPOS>MOLECULE
CHEMBL1163899
   51    53     0     0     0
SMALL
USER_CHARGES

@<TRIPOS>ATOM
      1 C1         -0.0173    1.4248    0.0099 C.3       1 <0>         0.0226
      2 O1          0.0021   -0.0041    0.0020 O.3       1 <0>        -0.3104
      3 C2          0.6047   -0.6060   -1.0538 C.ar      1 <0>         0.1665
      4 C3          1.1722    0.1671   -2.0611 C.ar      1 <0>        -0.2233
      5 C4          1.7829   -0.4364   -3.1302 C.ar      1 <0>        -0.0142
      6 C5          1.8346   -1.8337   -3.2068 C.ar      1 <0>        -0.2174
      7 C6          1.2617   -2.6075   -2.1899 C.ar      1 <0>        -0.0320
      8 C7          0.6580   -1.9941   -1.1224 C.ar      1 <0>        -0.1655
      9 C8          2.4870   -2.4854   -4.3498 C.2       1 <0>         0.3991
     10 O2          2.9822   -1.8131   -5.2296 O.2       1 <0>        -0.4420
     11 C9          2.5412   -3.9893   -4.4296 C.3       1 <0>        -0.1741
     12 C10         3.2695   -4.4062   -5.7089 C.3       1 <0>         0.1954
     13 C11         3.2167   -5.9056   -5.8511 C.ar      1 <0>        -0.0780
     14 C12         4.0892   -6.6994   -5.1304 C.ar      1 <0>        -0.1002
     15 C13         4.0408   -8.0747   -5.2608 C.ar      1 <0>        -0.0675
     16 C14         3.1194   -8.6562   -6.1116 C.ar      1 <0>        -0.1765
     17 C15         2.2462   -7.8625   -6.8316 C.ar      1 <0>        -0.0651
     18 C16         2.2919   -6.4874   -6.6979 C.ar      1 <0>        -0.1092
     19 C17         3.0673  -10.1555   -6.2546 C.3       1 <0>         0.5066
     20 F1          2.1793  -10.6833   -5.3111 F         1 <0>        -0.1751
     21 F2          2.6307  -10.4863   -7.5419 F         1 <0>        -0.1752
     22 F3          4.3433  -10.6888   -6.0434 F         1 <0>        -0.1758
     23 N1          4.6667   -3.9712   -5.6392 N.pl3     1 <0>        -0.7147
     24 C18         5.3890   -3.7512   -6.8142 C.ar      1 <0>         0.2774
     25 C19         4.7824   -3.9387   -8.0497 C.ar      1 <0>        -0.1929
     26 C20         5.4994   -3.7198   -9.2096 C.ar      1 <0>        -0.0040
     27 C21         6.8197   -3.3143   -9.1420 C.ar      1 <0>        -0.1108
     28 C22         7.4267   -3.1266   -7.9137 C.ar      1 <0>        -0.0047
     29 C23         6.7139   -3.3387   -6.7500 C.ar      1 <0>        -0.1934
     30 N2          7.5851   -3.0811  -10.3871 N.pl3     1 <0>         0.0449
     31 O3          7.0559   -3.2451  -11.4617 O.2       1 <0>        -0.1738
     32 O4          8.7395   -2.7266  -10.3296 O.3       1 <0>        -0.1739
     33 H1          1.0053    1.8021    0.0021 H         1 <0>         0.0604
     34 H2         -0.5445    1.7859   -0.8732 H         1 <0>         0.0606
     35 H3         -0.5275    1.7763    0.9067 H         1 <0>         0.1062
     36 H4          1.1315    1.2447   -2.0013 H         1 <0>         0.1364
     37 H5          2.2230    0.1649   -3.9120 H         1 <0>         0.1368
     38 H6          1.2989   -3.6855   -2.2443 H         1 <0>         0.1389
     39 H7          0.2194   -2.5899   -0.3356 H         1 <0>         0.1397
     40 H8          3.0754   -4.3801   -3.5635 H         1 <0>         0.1106
     41 H9          1.5273   -4.3892   -4.4419 H         1 <0>         0.1217
     42 H10         2.7870   -3.9424   -6.5692 H         1 <0>         0.1061
     43 H11         4.8090   -6.2450   -4.4657 H         1 <0>         0.1324
     44 H12         4.7230   -8.6948   -4.6983 H         1 <0>         0.1379
     45 H13         1.5267   -8.3168   -7.4966 H         1 <0>         0.1400
     46 H14         1.6072   -5.8674   -7.2576 H         1 <0>         0.1381
     47 H15         5.0902   -3.8361   -4.7771 H         1 <0>         0.4061
     48 H16         3.7514   -4.2558   -8.1032 H         1 <0>         0.1409
     49 H17         5.0285   -3.8658  -10.1705 H         1 <0>         0.1507
     50 H18         8.4581   -2.8102   -7.8645 H         1 <0>         0.1513
     51 H19         7.1873   -3.1880   -5.7910 H         1 <0>         0.1426
@<TRIPOS>BOND
     1    1    2 1
     2    1   33 1
     3    1   34 1
     4    1   35 1
     5    2    3 1
     6    3    8 ar
     7    3    4 ar
     8    4    5 ar
     9    4   36 1
    10    5    6 ar
    11    5   37 1
    12    6    7 ar
    13    6    9 1
    14    7    8 ar
    15    7   38 1
    16    8   39 1
    17    9   10 2
    18    9   11 1
    19   11   12 1
    20   11   40 1
    21   11   41 1
    22   12   13 1
    23   12   23 1
    24   12   42 1
    25   13   18 ar
    26   13   14 ar
    27   14   15 ar
    28   14   43 1
    29   15   16 ar
    30   15   44 1
    31   16   17 ar
    32   16   19 1
    33   17   18 ar
    34   17   45 1
    35   18   46 1
    36   19   20 1
    37   19   21 1
    38   19   22 1
    39   23   24 1
    40   23   47 1
    41   24   29 ar
    42   24   25 ar
    43   25   26 ar
    44   25   48 1
    45   26   27 ar
    46   26   49 1
    47   27   28 ar
    48   27   30 1
    49   28   29 ar
    50   28   50 1
    51   29   51 1
    52   30   31 2
    53   30   32 1
@<TRIPOS>MOLECULE
CHEMBL1163899__1
   51    53     0     0     0
SMALL
USER_CHARGES

@<TRIPOS>ATOM
      1 C1         -0.0173    1.4248    0.0099 C.3       1 <0>         0.0226
      2 O1          0.0021   -0.0041    0.0020 O.3       1 <0>        -0.3104
      3 C2          0.6047   -0.6060   -1.0538 C.ar      1 <0>         0.1665
      4 C3          1.1722    0.1671   -2.0611 C.ar      1 <0>        -0.2233
      5 C4          1.7829   -0.4364   -3.1302 C.ar      1 <0>        -0.0142
      6 C5          1.8346   -1.8337   -3.2068 C.ar      1 <0>        -0.2174
      7 C6          1.2617   -2.6075   -2.1899 C.ar      1 <0>        -0.0320
      8 C7          0.6580   -1.9941   -1.1224 C.ar      1 <0>        -0.1655
      9 C8          2.4870   -2.4854   -4.3498 C.2       1 <0>         0.3991
     10 O2          2.9822   -1.8131   -5.2296 O.2       1 <0>        -0.4420
     11 C9          2.5412   -3.9893   -4.4296 C.3       1 <0>        -0.1741
     12 C10         3.2695   -4.4062   -5.7089 C.3       1 <0>         0.1954
     13 C11         3.4321   -5.9043   -5.7289 C.ar      1 <0>        -0.0782
     14 C12         2.3765   -6.7090   -6.1150 C.ar      1 <0>        -0.1001
     15 C13         2.5256   -8.0831   -6.1334 C.ar      1 <0>        -0.0675
     16 C14         3.7304   -8.6526   -5.7660 C.ar      1 <0>        -0.1764
     17 C15         4.7863   -7.8479   -5.3806 C.ar      1 <0>        -0.0652
     18 C16         4.6385   -6.4735   -5.3664 C.ar      1 <0>        -0.1092
     19 C17         3.8927  -10.1507   -5.7850 C.3       1 <0>         0.5066
     20 F1          4.3532  -10.5539   -7.0430 F         1 <0>        -0.1745
     21 F2          4.8163  -10.5322   -4.8060 F         1 <0>        -0.1755
     22 F3          2.6591  -10.7567   -5.5238 F         1 <0>        -0.1761
     23 N1          2.4892   -3.9841   -6.8747 N.pl3     1 <0>        -0.7148
     24 C18         3.1254   -3.7645   -8.0986 C.ar      1 <0>         0.2774
     25 C19         4.4971   -3.9515   -8.2135 C.ar      1 <0>        -0.1929
     26 C20         5.1229   -3.7340   -9.4253 C.ar      1 <0>        -0.0039
     27 C21         4.3857   -3.3305  -10.5234 C.ar      1 <0>        -0.1108
     28 C22         3.0200   -3.1434  -10.4125 C.ar      1 <0>        -0.0046
     29 C23         2.3871   -3.3643   -9.2051 C.ar      1 <0>        -0.1934
     30 N2          5.0599   -3.0979  -11.8203 N.pl3     1 <0>         0.0449
     31 O3          6.2538   -3.2606  -11.9187 O.2       1 <0>        -0.1736
     32 O4          4.4166   -2.7451  -12.7813 O.3       1 <0>        -0.1741
     33 H1          1.0053    1.8021    0.0021 H         1 <0>         0.0606
     34 H2         -0.5445    1.7859   -0.8732 H         1 <0>         0.0604
     35 H3         -0.5275    1.7763    0.9067 H         1 <0>         0.1062
     36 H4          1.1315    1.2447   -2.0013 H         1 <0>         0.1364
     37 H5          2.2230    0.1649   -3.9120 H         1 <0>         0.1367
     38 H6          1.2989   -3.6855   -2.2443 H         1 <0>         0.1389
     39 H7          0.2194   -2.5899   -0.3356 H         1 <0>         0.1397
     40 H8          3.0754   -4.3801   -3.5635 H         1 <0>         0.1217
     41 H9          1.5273   -4.3892   -4.4419 H         1 <0>         0.1106
     42 H10         4.2513   -3.9338   -5.7384 H         1 <0>         0.1061
     43 H11         1.4352   -6.2641   -6.4021 H         1 <0>         0.1325
     44 H12         1.7007   -8.7119   -6.4344 H         1 <0>         0.1379
     45 H13         5.7275   -8.2928   -5.0933 H         1 <0>         0.1400
     46 H14         5.4646   -5.8446   -5.0690 H         1 <0>         0.1381
     47 H15         1.5307   -3.8571   -6.7967 H         1 <0>         0.4061
     48 H16         5.0735   -4.2663   -7.3562 H         1 <0>         0.1409
     49 H17         6.1894   -3.8789   -9.5152 H         1 <0>         0.1507
     50 H18         2.4473   -2.8279  -11.2720 H         1 <0>         0.1513
     51 H19         1.3199   -3.2220   -9.1201 H         1 <0>         0.1426
@<TRIPOS>BOND
     1    1    2 1
     2    1   33 1
     3    1   34 1
     4    1   35 1
     5    2    3 1
     6    3    8 ar
     7    3    4 ar
     8    4    5 ar
     9    4   36 1
    10    5    6 ar
    11    5   37 1
    12    6    7 ar
    13    6    9 1
    14    7    8 ar
    15    7   38 1
    16    8   39 1
    17    9   10 2
    18    9   11 1
    19   11   12 1
    20   11   40 1
    21   11   41 1
    22   12   13 1
    23   12   23 1
    24   12   42 1
    25   13   18 ar
    26   13   14 ar
    27   14   15 ar
    28   14   43 1
    29   15   16 ar
    30   15   44 1
    31   16   17 ar
    32   16   19 1
    33   17   18 ar
    34   17   45 1
    35   18   46 1
    36   19   20 1
    37   19   21 1
    38   19   22 1
    39   23   24 1
    40   23   47 1
    41   24   29 ar
    42   24   25 ar
    43   25   26 ar
    44   25   48 1
    45   26   27 ar
    46   26   49 1
    47   27   28 ar
    48   27   30 1
    49   28   29 ar
    50   28   50 1
    51   29   51 1
    52   30   31 2
    53   30   32 1
@<TRIPOS>MOLECULE
CHEMBL409147
   51    54     0     0     0
SMALL
USER_CHARGES

@<TRIPOS>ATOM
      1 C1         -0.0472    1.6447   -0.0571 C.3       1 <0>        -0.1287
      2 C2          0.1128    0.1976   -0.5273 C.3       1 <0>        -0.0527
      3 C3         -1.2025   -0.5406   -0.4266 C.ar      1 <0>        -0.0997
      4 C4         -2.4267   -0.3486   -1.0205 C.ar      1 <0>        -0.0766
      5 C5         -3.4852   -1.2130   -0.7273 C.ar      1 <0>        -0.0141
      6 C6         -3.2864   -2.2661    0.1690 C.ar      1 <0>        -0.0938
      7 C7         -2.0555   -2.4501    0.7596 C.ar      1 <0>         0.0901
      8 C8         -0.9967   -1.5861    0.4663 C.ar      1 <0>         0.1221
      9 N1          0.3188   -1.5703    0.9311 N.am      1 <0>        -0.5443
     10 C9          1.0338   -0.5634    0.4024 C.2       1 <0>         0.5346
     11 O1          2.1988   -0.3115    0.6274 O.2       1 <0>        -0.4831
     12 C10         0.8585   -2.5409    1.8866 C.3       1 <0>         0.1090
     13 C11         1.4426   -3.7337    1.1269 C.3       1 <0>        -0.0930
     14 C12         1.9978   -4.7321    2.1098 C.ar      1 <0>        -0.0854
     15 C13         3.3141   -4.6382    2.5213 C.ar      1 <0>        -0.1133
     16 C14         3.8234   -5.5541    3.4228 C.ar      1 <0>        -0.1179
     17 C15         3.0163   -6.5635    3.9132 C.ar      1 <0>        -0.1200
     18 C16         1.6997   -6.6568    3.5023 C.ar      1 <0>        -0.1180
     19 C17         1.1892   -5.7384    2.6041 C.ar      1 <0>        -0.1120
     20 F1         -1.8708   -3.4704    1.6257 F         1 <0>        -0.1302
     21 C18        -4.8048   -1.0142   -1.3604 C.2       1 <0>         0.0922
     22 C19        -5.7845   -1.9731   -1.5016 C.2       1 <0>        -0.1722
     23 C20        -6.8672   -1.3793   -2.1490 C.2       1 <0>        -0.1072
     24 C21        -6.5322   -0.0625   -2.3945 C.2       1 <0>         0.0606
     25 N2         -5.2652    0.1533   -1.9007 N.pl3     1 <0>        -0.4141
     26 C22        -4.5323    1.4209   -1.9496 C.3       1 <0>         0.0539
     27 C23        -7.3593    0.9095   -3.0438 C.1       1 <0>         0.2756
     28 N3         -8.0155    1.6806   -3.5589 N.1       1 <0>        -0.4010
     29 C24         0.6454    0.1570   -1.9610 C.3       1 <0>        -0.1280
     30 H1          0.9233    2.1407   -0.0709 H         1 <0>         0.0760
     31 H2         -0.7328    2.1693   -0.7226 H         1 <0>         0.0746
     32 H3         -0.4462    1.6552    0.9572 H         1 <0>         0.0631
     33 H4         -2.5708    0.4686   -1.7118 H         1 <0>         0.1397
     34 H5         -4.1001   -2.9376    0.3998 H         1 <0>         0.1546
     35 H6          1.6417   -2.0694    2.4802 H         1 <0>         0.0950
     36 H7          0.0608   -2.8848    2.5450 H         1 <0>         0.0953
     37 H8          0.6594   -4.2052    0.5333 H         1 <0>         0.0775
     38 H9          2.2403   -3.3898    0.4685 H         1 <0>         0.0781
     39 H10         3.9448   -3.8496    2.1382 H         1 <0>         0.1223
     40 H11         4.8521   -5.4811    3.7438 H         1 <0>         0.1232
     41 H12         3.4144   -7.2794    4.6170 H         1 <0>         0.1225
     42 H13         1.0692   -7.4457    3.8851 H         1 <0>         0.1234
     43 H14         0.1596   -5.8091    2.2859 H         1 <0>         0.1230
     44 H15        -5.7244   -2.9993   -1.1706 H         1 <0>         0.1545
     45 H16        -7.7976   -1.8613   -2.4108 H         1 <0>         0.1555
     46 H17        -3.8743    1.4268   -2.8186 H         1 <0>         0.0869
     47 H18        -5.2397    2.2469   -2.0239 H         1 <0>         0.0896
     48 H19        -3.9378    1.5321   -1.0429 H         1 <0>         0.0984
     49 H20         1.6096    0.6634   -2.0049 H         1 <0>         0.0756
     50 H21         0.7650   -0.8799   -2.2750 H         1 <0>         0.0633
     51 H22        -0.0590    0.6586   -2.6246 H         1 <0>         0.0750
@<TRIPOS>BOND
     1    1    2 1
     2    1   30 1
     3    1   31 1
     4    1   32 1
     5    2   10 1
     6    2    3 1
     7    2   29 1
     8    3    8 ar
     9    3    4 ar
    10    4    5 ar
    11    4   33 1
    12    5    6 ar
    13    5   21 1
    14    6    7 ar
    15    6   34 1
    16    7    8 ar
    17    7   20 1
    18    8    9 1
    19    9   10 am
    20    9   12 1
    21   10   11 2
    22   12   13 1
    23   12   35 1
    24   12   36 1
    25   13   14 1
    26   13   37 1
    27   13   38 1
    28   14   19 ar
    29   14   15 ar
    30   15   16 ar
    31   15   39 1
    32   16   17 ar
    33   16   40 1
    34   17   18 ar
    35   17   41 1
    36   18   19 ar
    37   18   42 1
    38   19   43 1
    39   21   25 1
    40   21   22 2
    41   22   23 1
    42   22   44 1
    43   23   24 2
    44   23   45 1
    45   24   25 1
    46   24   27 1
    47   25   26 1
    48   26   46 1
    49   26   47 1
    50   26   48 1
    51   27   28 3
    52   29   49 1
    53   29   50 1
    54   29   51 1
@<TRIPOS>MOLECULE
CHEMBL53549
   46    47     0     0     0
SMALL
USER_CHARGES

@<TRIPOS>ATOM
      1 C1         -0.0187    1.5258    0.0104 C.3       1 <0>        -0.1494
      2 C2          0.0021   -0.0041    0.0020 C.3       1 <0>        -0.0913
      3 H1         -1.0204   -0.3815    0.0098 H         1 <0>         0.0759
      4 C3          0.7198   -0.4985   -1.2582 C.3       1 <0>        -0.0796
      5 C4          0.8464   -2.0039   -1.1803 C.2       1 <0>        -0.1095
      6 C5          0.4567   -2.7631   -2.1742 C.2       1 <0>        -0.1910
      7 C6          1.4348   -2.6101    0.0745 C.3       1 <0>        -0.0306
      8 H2          1.3154   -3.6932    0.0486 H         1 <0>         0.0724
      9 C7          0.6911   -2.0391    1.2864 C.3       1 <0>        -0.0548
     10 C8          0.7424   -0.5110    1.2408 C.3       1 <0>        -0.1063
     11 C9         -0.7669   -2.5016    1.2548 C.3       1 <0>        -0.1435
     12 C10         1.3559   -2.5338    2.5726 C.3       1 <0>        -0.1468
     13 C11         2.9212   -2.2591    0.1664 C.3       1 <0>        -0.0776
     14 C12         3.6623   -2.9090   -0.9735 C.ar      1 <0>        -0.0412
     15 C13         4.0004   -2.1676   -2.0894 C.ar      1 <0>        -0.1807
     16 C14         4.6822   -2.7651   -3.1384 C.ar      1 <0>         0.1519
     17 C15         5.0251   -4.1082   -3.0675 C.ar      1 <0>        -0.1173
     18 C16         4.6868   -4.8494   -1.9515 C.ar      1 <0>        -0.0763
     19 C17         4.0097   -4.2495   -0.8999 C.ar      1 <0>         0.0733
     20 O1          3.6816   -4.9773    0.2009 O.3       1 <0>        -0.4861
     21 Br1         5.9545   -4.9238   -4.4983 Br        1 <0>        -0.0318
     22 O2          5.0146   -2.0354   -4.2369 O.3       1 <0>        -0.3016
     23 C18         4.6297   -0.6592   -4.2423 C.3       1 <0>         0.0244
     24 H3          1.0039    1.9031    0.0027 H         1 <0>         0.0537
     25 H4         -0.5459    1.8868   -0.8726 H         1 <0>         0.0544
     26 H5         -0.5289    1.8773    0.9072 H         1 <0>         0.0557
     27 H6          0.1410   -0.2249   -2.1404 H         1 <0>         0.0671
     28 H7          1.7118   -0.0501   -1.3143 H         1 <0>         0.0688
     29 H8          0.0387   -2.3157   -3.0639 H         1 <0>         0.0962
     30 H9          0.5533   -3.8365   -2.1039 H         1 <0>         0.0934
     31 H10         1.7816   -0.1847    1.2006 H         1 <0>         0.0644
     32 H11         0.2708   -0.1056    2.1359 H         1 <0>         0.0642
     33 H12        -0.8034   -3.5905    1.2862 H         1 <0>         0.0529
     34 H13        -1.2958   -2.0953    2.1169 H         1 <0>         0.0552
     35 H14        -1.2403   -2.1485    0.3386 H         1 <0>         0.0608
     36 H15         2.3945   -2.2035    2.5950 H         1 <0>         0.0598
     37 H16         0.8268   -2.1275    3.4346 H         1 <0>         0.0560
     38 H17         1.3202   -3.6227    2.6044 H         1 <0>         0.0573
     39 H18         3.0433   -1.1775    0.1095 H         1 <0>         0.0772
     40 H19         3.3220   -2.6207    1.1134 H         1 <0>         0.0921
     41 H20         3.7333   -1.1227   -2.1447 H         1 <0>         0.1379
     42 H21         4.9532   -5.8946   -1.8961 H         1 <0>         0.1440
     43 H22         2.8175   -5.4078    0.1446 H         1 <0>         0.3856
     44 H23         4.9548   -0.1948   -5.1733 H         1 <0>         0.1050
     45 H24         3.5455   -0.5848   -4.1583 H         1 <0>         0.0581
     46 H25         5.0954   -0.1484   -3.3995 H         1 <0>         0.0577
@<TRIPOS>BOND
     1    1    2 1
     2    1   24 1
     3    1   25 1
     4    1   26 1
     5    2    3 1
     6    2   10 1
     7    2    4 1
     8    4    5 1
     9    4   27 1
    10    4   28 1
    11    5    6 2
    12    5    7 1
    13    6   29 1
    14    6   30 1
    15    7    8 1
    16    7    9 1
    17    7   13 1
    18    9   10 1
    19    9   11 1
    20    9   12 1
    21   10   31 1
    22   10   32 1
    23   11   33 1
    24   11   34 1
    25   11   35 1
    26   12   36 1
    27   12   37 1
    28   12   38 1
    29   13   14 1
    30   13   39 1
    31   13   40 1
    32   14   19 ar
    33   14   15 ar
    34   15   16 ar
    35   15   41 1
    36   16   17 ar
    37   16   22 1
    38   17   18 ar
    39   17   21 1
    40   18   19 ar
    41   18   42 1
    42   19   20 1
    43   20   43 1
    44   22   23 1
    45   23   44 1
    46   23   45 1
    47   23   46 1
@<TRIPOS>MOLECULE
CHEMBL486498
   46    50     0     0     0
SMALL
USER_CHARGES

@<TRIPOS>ATOM
      1 C1          0.0735    1.3130   -0.8197 C.2       1 <0>        -0.1585
      2 C2          1.3835    1.7013   -1.0289 C.2       1 <0>        -0.1124
      3 C3          2.2913    1.5117   -0.0403 C.2       1 <0>        -0.1588
      4 S1          1.2943    0.7636    1.2379 S.3       1 <0>         0.0606
      5 C4         -0.2647    0.7542    0.3680 C.2       1 <0>        -0.1627
      6 C5          3.7608    1.8454   -0.0244 C.3       1 <0>         0.3575
      7 C6          4.5247    0.6294   -0.4481 C.ar      1 <0>        -0.1377
      8 C7          3.8808   -0.5894   -0.2602 C.ar      1 <0>        -0.0568
      9 C8          4.4871   -1.7857   -0.6169 C.ar      1 <0>        -0.0765
     10 C9          5.7651   -1.7614   -1.1741 C.ar      1 <0>        -0.0554
     11 C10         6.3997   -0.5600   -1.3578 C.ar      1 <0>        -0.1602
     12 C11         5.7917    0.6553   -0.9962 C.ar      1 <0>         0.2079
     13 N1          6.5498    1.7809   -1.2297 N.am      1 <0>        -0.6458
     14 C12         6.3279    3.0677   -1.1903 C.2       1 <0>         0.5012
     15 O1          7.1807    3.7844   -1.6701 O.2       1 <0>        -0.5222
     16 C13         5.1303    3.7417   -0.6145 C.3       1 <0>         0.0421
     17 O2          3.9627    2.9789   -0.8147 O.3       1 <0>        -0.3393
     18 C14         3.7840   -3.0753   -0.4074 C.ar      1 <0>        -0.0039
     19 C15         4.4011   -4.2706   -0.7623 C.ar      1 <0>        -0.0762
     20 C16         3.7355   -5.4793   -0.5626 C.ar      1 <0>         0.0134
     21 C17         2.4537   -5.4835   -0.0076 C.ar      1 <0>        -0.1093
     22 C18         1.8467   -4.2920    0.3428 C.ar      1 <0>         0.1137
     23 C19         2.5066   -3.0910    0.1508 C.ar      1 <0>        -0.1225
     24 F1          0.6066   -4.3004    0.8790 F         1 <0>        -0.1274
     25 C20         4.3644   -6.7134   -0.9260 C.1       1 <0>         0.2483
     26 N2          4.8632   -7.6925   -1.2144 N.1       1 <0>        -0.3953
     27 C21         4.1538    2.1786    1.3918 C.2       1 <0>        -0.2179
     28 C22         4.8124    1.4144    2.2972 C.2       1 <0>        -0.1138
     29 C23         5.0682    1.9331    3.5526 C.2       1 <0>        -0.1632
     30 C24         4.6530    3.1908    3.8412 C.2       1 <0>        -0.1578
     31 S2          3.8799    3.6850    2.3098 S.3       1 <0>         0.0738
     32 H1         -0.6703    1.4568   -1.5893 H         1 <0>         0.1400
     33 H2          1.6795    2.1486   -1.9663 H         1 <0>         0.1413
     34 H3         -1.2275    0.3964    0.7017 H         1 <0>         0.1909
     35 H4          2.8910   -0.6049    0.1716 H         1 <0>         0.1419
     36 H5          6.2518   -2.6825   -1.4586 H         1 <0>         0.1406
     37 H6          7.3894   -0.5467   -1.7901 H         1 <0>         0.1385
     38 H7          7.4620    1.5687   -1.4821 H         1 <0>         0.4034
     39 H8          5.2822    3.8856    0.4552 H         1 <0>         0.1025
     40 H9          5.0062    4.7148   -1.0896 H         1 <0>         0.1501
     41 H10         5.3921   -4.2622   -1.1915 H         1 <0>         0.1448
     42 H11         1.9362   -6.4187    0.1477 H         1 <0>         0.1492
     43 H12         2.0295   -2.1634    0.4304 H         1 <0>         0.1453
     44 H13         5.1321    0.4149    2.0416 H         1 <0>         0.1363
     45 H14         5.5908    1.3451    4.2925 H         1 <0>         0.1396
     46 H15         4.7643    3.7500    4.7584 H         1 <0>         0.1910
@<TRIPOS>BOND
     1    1    5 2
     2    1    2 1
     3    1   32 1
     4    2    3 2
     5    2   33 1
     6    3    4 1
     7    3    6 1
     8    4    5 1
     9    5   34 1
    10    6   17 1
    11    6    7 1
    12    6   27 1
    13    7   12 ar
    14    7    8 ar
    15    8    9 ar
    16    8   35 1
    17    9   10 ar
    18    9   18 1
    19   10   11 ar
    20   10   36 1
    21   11   12 ar
    22   11   37 1
    23   12   13 1
    24   13   14 am
    25   13   38 1
    26   14   15 2
    27   14   16 1
    28   16   17 1
    29   16   39 1
    30   16   40 1
    31   18   23 ar
    32   18   19 ar
    33   19   20 ar
    34   19   41 1
    35   20   21 ar
    36   20   25 1
    37   21   22 ar
    38   21   42 1
    39   22   23 ar
    40   22   24 1
    41   23   43 1
    42   25   26 3
    43   27   31 1
    44   27   28 2
    45   28   29 1
    46   28   44 1
    47   29   30 2
    48   29   45 1
    49   30   31 1
    50   30   46 1
@<TRIPOS>MOLECULE
CHEMBL241732
   49    52     0     0     0
SMALL
USER_CHARGES

@<TRIPOS>ATOM
      1 C1         -0.0634    1.5446   -0.1307 C.3       1 <0>        -0.1574
      2 C2         -0.0450    0.0147   -0.1168 C.3       1 <0>        -0.1046
      3 C3          0.6386   -0.4754    1.1613 C.3       1 <0>         0.2192
      4 C4          0.7545   -1.9784    1.1275 C.ar      1 <0>        -0.1189
      5 C5          0.9034   -2.6520   -0.0651 C.ar      1 <0>        -0.1195
      6 C6          1.0096   -4.0380   -0.0664 C.ar      1 <0>         0.1674
      7 C7          0.9661   -4.7405    1.1313 C.ar      1 <0>        -0.1264
      8 C8          0.8156   -4.0636    2.3263 C.ar      1 <0>        -0.1104
      9 C9          0.7092   -2.6821    2.3263 C.ar      1 <0>         0.1356
     10 N1          0.5527   -1.9675    3.5231 N.am      1 <0>        -0.5614
     11 C10         0.1438   -0.6826    3.4746 C.2       1 <0>         0.6600
     12 O1          0.0340   -0.0474    4.5047 O.2       1 <0>        -0.5012
     13 O2         -0.1430   -0.0971    2.2980 O.3       1 <0>        -0.3257
     14 C11         0.8294   -2.6090    4.8108 C.3       1 <0>         0.0862
     15 N2          1.1608   -4.7262   -1.2753 N.pl3     1 <0>        -0.6821
     16 C12         0.7541   -6.0588   -1.3760 C.ar      1 <0>         0.1921
     17 C13        -0.3350   -6.5117   -0.6412 C.ar      1 <0>        -0.1595
     18 C14        -0.7352   -7.8293   -0.7430 C.ar      1 <0>        -0.0732
     19 C15        -0.0538   -8.6987   -1.5751 C.ar      1 <0>        -0.1413
     20 C16         1.0313   -8.2515   -2.3086 C.ar      1 <0>        -0.0014
     21 C17         1.4337   -6.9323   -2.2151 C.ar      1 <0>        -0.1571
     22 Cl1         1.8839   -9.3466   -3.3514 Cl        1 <0>        -0.0641
     23 C18         2.0115    0.1370    1.2661 C.ar      1 <0>        -0.1191
     24 C19         3.1000   -0.5067    0.7078 C.ar      1 <0>        -0.0991
     25 C20         4.3594    0.0551    0.8040 C.ar      1 <0>        -0.1212
     26 C21         4.5302    1.2608    1.4581 C.ar      1 <0>        -0.1093
     27 C22         3.4416    1.9050    2.0157 C.ar      1 <0>        -0.1192
     28 C23         2.1815    1.3453    1.9158 C.ar      1 <0>        -0.0927
     29 H1          0.9592    1.9206   -0.0985 H         1 <0>         0.0624
     30 H2         -0.5504    1.8938   -1.0412 H         1 <0>         0.0622
     31 H3         -0.6122    1.9092    0.7376 H         1 <0>         0.0649
     32 H4         -1.0676   -0.3612   -0.1490 H         1 <0>         0.0833
     33 H5          0.5037   -0.3499   -0.9851 H         1 <0>         0.0900
     34 H6          0.9371   -2.1051   -0.9958 H         1 <0>         0.1392
     35 H7          1.0497   -5.8173    1.1283 H         1 <0>         0.1377
     36 H8          0.7815   -4.6096    3.2575 H         1 <0>         0.1393
     37 H9          1.8765   -2.4593    5.0737 H         1 <0>         0.0690
     38 H10         0.1950   -2.1685    5.5800 H         1 <0>         0.0902
     39 H11         0.6224   -3.6767    4.7368 H         1 <0>         0.0838
     40 H12         1.5482   -4.2780   -2.0434 H         1 <0>         0.4131
     41 H13        -0.8677   -5.8338    0.0092 H         1 <0>         0.1330
     42 H14        -1.5814   -8.1816   -0.1717 H         1 <0>         0.1362
     43 H15        -0.3689   -9.7288   -1.6525 H         1 <0>         0.1346
     44 H16         2.2779   -6.5824   -2.7906 H         1 <0>         0.1353
     45 H17         2.9665   -1.4487    0.1967 H         1 <0>         0.1251
     46 H18         5.2099   -0.4481    0.3683 H         1 <0>         0.1249
     47 H19         5.5142    1.6994    1.5339 H         1 <0>         0.1246
     48 H20         3.5751    2.8468    2.5271 H         1 <0>         0.1264
     49 H21         1.3305    1.8504    2.3482 H         1 <0>         0.1294
@<TRIPOS>BOND
     1    1    2 1
     2    1   29 1
     3    1   30 1
     4    1   31 1
     5    2    3 1
     6    2   32 1
     7    2   33 1
     8    3   13 1
     9    3    4 1
    10    3   23 1
    11    4    9 ar
    12    4    5 ar
    13    5    6 ar
    14    5   34 1
    15    6    7 ar
    16    6   15 1
    17    7    8 ar
    18    7   35 1
    19    8    9 ar
    20    8   36 1
    21    9   10 1
    22   10   11 am
    23   10   14 1
    24   11   12 2
    25   11   13 1
    26   14   37 1
    27   14   38 1
    28   14   39 1
    29   15   16 1
    30   15   40 1
    31   16   21 ar
    32   16   17 ar
    33   17   18 ar
    34   17   41 1
    35   18   19 ar
    36   18   42 1
    37   19   20 ar
    38   19   43 1
    39   20   21 ar
    40   20   22 1
    41   21   44 1
    42   23   28 ar
    43   23   24 ar
    44   24   25 ar
    45   24   45 1
    46   25   26 ar
    47   25   46 1
    48   26   27 ar
    49   26   47 1
    50   27   28 ar
    51   27   48 1
    52   28   49 1
@<TRIPOS>MOLECULE
CHEMBL241732__1
   49    52     0     0     0
SMALL
USER_CHARGES

@<TRIPOS>ATOM
      1 C1         -0.1155    1.5433    0.0202 C.3       1 <0>        -0.1570
      2 C2         -0.0708    0.0140    0.0227 C.3       1 <0>        -0.1042
      3 C3          0.6229   -0.4739    1.2962 C.3       1 <0>         0.2189
      4 C4          0.6816   -1.9806    1.2938 C.ar      1 <0>        -0.1187
      5 C5         -0.3034   -2.7281    0.6864 C.ar      1 <0>        -0.1195
      6 C6         -0.2246   -4.1158    0.7010 C.ar      1 <0>         0.1675
      7 C7          0.8438   -4.7458    1.3267 C.ar      1 <0>        -0.1267
      8 C8          1.8308   -3.9947    1.9353 C.ar      1 <0>        -0.1085
      9 C9          1.7522   -2.6114    1.9187 C.ar      1 <0>         0.1350
     10 N1          2.7408   -1.8222    2.5245 N.am      1 <0>        -0.5612
     11 C10         2.8060   -0.5070    2.2301 C.2       1 <0>         0.6597
     12 O1          3.6411    0.1897    2.7721 O.2       1 <0>        -0.5013
     13 O2          1.9567    0.0410    1.3426 O.3       1 <0>        -0.3253
     14 C11         3.6912   -2.4187    3.4663 C.3       1 <0>         0.0870
     15 N2         -1.2228   -4.8791    0.0852 N.pl3     1 <0>        -0.6821
     16 C12        -1.4632   -6.1879    0.5100 C.ar      1 <0>         0.1923
     17 C13        -1.2809   -6.5315    1.8441 C.ar      1 <0>        -0.1598
     18 C14        -1.5198   -7.8259    2.2614 C.ar      1 <0>        -0.0732
     19 C15        -1.9400   -8.7807    1.3535 C.ar      1 <0>        -0.1414
     20 C16        -2.1227   -8.4426    0.0240 C.ar      1 <0>        -0.0012
     21 C17        -1.8903   -7.1472   -0.3990 C.ar      1 <0>        -0.1572
     22 Cl1        -2.6498   -9.6447   -1.1122 Cl        1 <0>        -0.0640
     23 C18        -0.1442    0.0020    2.5029 C.ar      1 <0>        -0.1196
     24 C19        -1.1506   -0.7818    3.0354 C.ar      1 <0>        -0.0989
     25 C20        -1.8543   -0.3453    4.1423 C.ar      1 <0>        -0.1212
     26 C21        -1.5512    0.8749    4.7169 C.ar      1 <0>        -0.1091
     27 C22        -0.5442    1.6584    4.1849 C.ar      1 <0>        -0.1192
     28 C23         0.1623    1.2199    3.0806 C.ar      1 <0>        -0.0931
     29 H1          0.9006    1.9365    0.0539 H         1 <0>         0.0656
     30 H2         -0.6097    1.8909   -0.8870 H         1 <0>         0.0621
     31 H3         -0.6691    1.8921    0.8920 H         1 <0>         0.0619
     32 H4         -1.0868   -0.3793   -0.0110 H         1 <0>         0.0897
     33 H5          0.4829   -0.3348   -0.8490 H         1 <0>         0.0825
     34 H6         -1.1337   -2.2376    0.2002 H         1 <0>         0.1388
     35 H7          0.9027   -5.8242    1.3378 H         1 <0>         0.1376
     36 H8          2.6614   -4.4842    2.4221 H         1 <0>         0.1384
     37 H9          4.5674   -2.7727    2.9231 H         1 <0>         0.0696
     38 H10         3.9954   -1.6706    4.1984 H         1 <0>         0.0899
     39 H11         3.2181   -3.2567    3.9782 H         1 <0>         0.0828
     40 H12        -1.7478   -4.4993   -0.6366 H         1 <0>         0.4134
     41 H13        -0.9524   -5.7868    2.5539 H         1 <0>         0.1328
     42 H14        -1.3778   -8.0932    3.2981 H         1 <0>         0.1360
     43 H15        -2.1257   -9.7924    1.6826 H         1 <0>         0.1345
     44 H16        -2.0369   -6.8824   -1.4358 H         1 <0>         0.1354
     45 H17        -1.3874   -1.7351    2.5865 H         1 <0>         0.1259
     46 H18        -2.6410   -0.9574    4.5579 H         1 <0>         0.1249
     47 H19        -2.1015    1.2163    5.5812 H         1 <0>         0.1246
     48 H20        -0.3077    2.6118    4.6336 H         1 <0>         0.1263
     49 H21         0.9516    1.8303    2.6672 H         1 <0>         0.1294
@<TRIPOS>BOND
     1    1    2 1
     2    1   29 1
     3    1   30 1
     4    1   31 1
     5    2    3 1
     6    2   32 1
     7    2   33 1
     8    3   13 1
     9    3    4 1
    10    3   23 1
    11    4    9 ar
    12    4    5 ar
    13    5    6 ar
    14    5   34 1
    15    6    7 ar
    16    6   15 1
    17    7    8 ar
    18    7   35 1
    19    8    9 ar
    20    8   36 1
    21    9   10 1
    22   10   11 am
    23   10   14 1
    24   11   12 2
    25   11   13 1
    26   14   37 1
    27   14   38 1
    28   14   39 1
    29   15   16 1
    30   15   40 1
    31   16   21 ar
    32   16   17 ar
    33   17   18 ar
    34   17   41 1
    35   18   19 ar
    36   18   42 1
    37   19   20 ar
    38   19   43 1
    39   20   21 ar
    40   20   22 1
    41   21   44 1
    42   23   28 ar
    43   23   24 ar
    44   24   25 ar
    45   24   45 1
    46   25   26 ar
    47   25   46 1
    48   26   27 ar
    49   26   47 1
    50   27   28 ar
    51   27   48 1
    52   28   49 1
@<TRIPOS>MOLECULE
CHEMBL527871
   51    55     0     0     0
SMALL
USER_CHARGES

@<TRIPOS>ATOM
      1 C1         -0.4383    0.2958    0.1148 C.ar      1 <0>        -0.1108
      2 C2          0.1519   -0.3671    1.1745 C.ar      1 <0>        -0.1216
      3 C3          1.4947   -0.6919    1.1252 C.ar      1 <0>        -0.1079
      4 C4          2.2471   -0.3540    0.0158 C.ar      1 <0>        -0.0762
      5 C5          1.6567    0.3081   -1.0443 C.ar      1 <0>        -0.0866
      6 C6          0.3143    0.6341   -0.9943 C.ar      1 <0>        -0.1189
      7 C7          3.7112   -0.7071   -0.0376 C.3       1 <0>         0.2573
      8 C8          3.8462   -2.0652   -0.6536 C.ar      1 <0>        -0.1337
      9 C9          2.7289   -2.8888   -0.5608 C.ar      1 <0>        -0.0627
     10 C10         2.7327   -4.1692   -1.0963 C.ar      1 <0>        -0.0715
     11 C11         3.8793   -4.6346   -1.7391 C.ar      1 <0>        -0.0642
     12 C12         4.9805   -3.8226   -1.8294 C.ar      1 <0>        -0.1596
     13 C13         4.9837   -2.5255   -1.2863 C.ar      1 <0>         0.1958
     14 N1          6.1611   -1.8286   -1.4433 N.am      1 <0>        -0.6451
     15 C14         6.5372   -0.5942   -1.2396 C.2       1 <0>         0.4999
     16 O1          7.6130   -0.2683   -1.6950 O.2       1 <0>        -0.5276
     17 C15         5.7745    0.4529   -0.5033 C.3       1 <0>         0.0453
     18 O2          4.3863    0.3174   -0.7046 O.3       1 <0>        -0.3431
     19 C16         1.5315   -5.0327   -0.9856 C.ar      1 <0>        -0.0338
     20 C17         0.3870   -4.5591   -0.3463 C.ar      1 <0>        -0.0788
     21 C18        -0.7283   -5.3651   -0.2452 C.ar      1 <0>        -0.1338
     22 C19        -0.7121   -6.6440   -0.7776 C.ar      1 <0>         0.1094
     23 C20         0.4239   -7.1198   -1.4141 C.ar      1 <0>        -0.0692
     24 C21         1.5422   -6.3172   -1.5254 C.ar      1 <0>        -0.0775
     25 Cl1         0.4380   -8.7235   -2.0786 Cl        1 <0>        -0.0437
     26 F1         -1.8063   -7.4298   -0.6760 F         1 <0>        -0.1241
     27 C22         4.2317   -0.7770    1.3749 C.ar      1 <0>        -0.1303
     28 C23         4.3854    0.3816    2.1131 C.ar      1 <0>        -0.0981
     29 C24         4.8628    0.3175    3.4087 C.ar      1 <0>        -0.1186
     30 C25         5.1862   -0.9053    3.9665 C.ar      1 <0>        -0.1080
     31 C26         5.0317   -2.0640    3.2287 C.ar      1 <0>        -0.1189
     32 C27         4.5502   -2.0003    1.9345 C.ar      1 <0>        -0.1028
     33 H1         -1.4884    0.5455    0.1515 H         1 <0>         0.1242
     34 H2         -0.4360   -0.6311    2.0412 H         1 <0>         0.1257
     35 H3          1.9559   -1.2092    1.9534 H         1 <0>         0.1256
     36 H4          2.2447    0.5727   -1.9107 H         1 <0>         0.1284
     37 H5         -0.1469    1.1518   -1.8224 H         1 <0>         0.1254
     38 H6          1.8423   -2.5252   -0.0627 H         1 <0>         0.1422
     39 H7          3.8999   -5.6279   -2.1626 H         1 <0>         0.1370
     40 H8          5.8659   -4.1880   -2.3282 H         1 <0>         0.1353
     41 H9          6.8791   -2.3842   -1.7847 H         1 <0>         0.4013
     42 H10         5.9900    0.3679    0.5618 H         1 <0>         0.1001
     43 H11         6.0910    1.4358   -0.8523 H         1 <0>         0.1440
     44 H12         0.3733   -3.5626    0.0698 H         1 <0>         0.1411
     45 H13        -1.6153   -4.9986    0.2500 H         1 <0>         0.1491
     46 H14         2.4254   -6.6864   -2.0255 H         1 <0>         0.1466
     47 H15         4.1327    1.3370    1.6773 H         1 <0>         0.1287
     48 H16         4.9836    1.2228    3.9852 H         1 <0>         0.1273
     49 H17         5.5599   -0.9553    4.9785 H         1 <0>         0.1254
     50 H18         5.2847   -3.0194    3.6643 H         1 <0>         0.1253
     51 H19         4.4259   -2.9059    1.3593 H         1 <0>         0.1266
@<TRIPOS>BOND
     1    1    6 ar
     2    1    2 ar
     3    1   33 1
     4    2    3 ar
     5    2   34 1
     6    3    4 ar
     7    3   35 1
     8    4    5 ar
     9    4    7 1
    10    5    6 ar
    11    5   36 1
    12    6   37 1
    13    7   18 1
    14    7    8 1
    15    7   27 1
    16    8   13 ar
    17    8    9 ar
    18    9   10 ar
    19    9   38 1
    20   10   11 ar
    21   10   19 1
    22   11   12 ar
    23   11   39 1
    24   12   13 ar
    25   12   40 1
    26   13   14 1
    27   14   15 am
    28   14   41 1
    29   15   16 2
    30   15   17 1
    31   17   18 1
    32   17   42 1
    33   17   43 1
    34   19   24 ar
    35   19   20 ar
    36   20   21 ar
    37   20   44 1
    38   21   22 ar
    39   21   45 1
    40   22   23 ar
    41   22   26 1
    42   23   24 ar
    43   23   25 1
    44   24   46 1
    45   27   32 ar
    46   27   28 ar
    47   28   29 ar
    48   28   47 1
    49   29   30 ar
    50   29   48 1
    51   30   31 ar
    52   30   49 1
    53   31   32 ar
    54   31   50 1
    55   32   51 1
@<TRIPOS>MOLECULE
CHEMBL250897
   40    42     0     0     0
SMALL
USER_CHARGES

@<TRIPOS>ATOM
      1 C1          0.4909    1.5286    0.4441 C.3       1 <0>        -0.1496
      2 C2          0.2758    0.0198    0.3088 C.3       1 <0>        -0.1331
      3 C3          0.6498   -0.4238   -1.1069 C.3       1 <0>         0.1184
      4 H1          0.0824    0.1529   -1.8373 H         1 <0>         0.1083
      5 C4          0.3529   -1.9204   -1.2798 C.3       1 <0>         0.0539
      6 O1          1.1500   -2.6571   -0.3496 O.3       1 <0>        -0.2966
      7 C5          2.4770   -2.3781   -0.2906 C.ar      1 <0>         0.1370
      8 C6          2.9739   -1.1732   -0.7659 C.ar      1 <0>         0.1065
      9 C7          4.3338   -0.8948   -0.6960 C.ar      1 <0>        -0.0779
     10 C8          5.2129   -1.8115   -0.1561 C.ar      1 <0>        -0.1480
     11 C9          4.7420   -3.0267    0.3243 C.ar      1 <0>         0.1866
     12 C10         3.3649   -3.3161    0.2593 C.ar      1 <0>        -0.1053
     13 C11         2.8846   -4.5992    0.7697 C.2       1 <0>        -0.0710
     14 C12         3.7868   -5.4690    1.2908 C.2       1 <0>        -0.1443
     15 C13         5.1551   -5.1325    1.3342 C.2       1 <0>         0.5386
     16 O2          5.9480   -5.9290    1.8066 O.2       1 <0>        -0.5210
     17 N1          5.6081   -3.9563    0.8667 N.am      1 <0>        -0.6213
     18 H2          6.5564   -3.7572    0.9114 H         1 <0>         0.4226
     19 C14         1.4195   -4.9482    0.7186 C.3       1 <0>         0.5162
     20 F1          1.2240   -6.2212    1.2649 F         1 <0>        -0.1755
     21 F2          0.6902   -4.0080    1.4544 F         1 <0>        -0.1585
     22 F3          0.9840   -4.9395   -0.6109 F         1 <0>        -0.1624
     23 N2          2.0929   -0.2281   -1.3273 N.pl3     1 <0>        -0.6224
     24 C15         2.5931    0.9089   -2.1040 C.3       1 <0>         0.0952
     25 C16         2.8130    0.4778   -3.5554 C.3       1 <0>         0.4246
     26 F4          1.6183   -0.0298   -4.0772 F         1 <0>        -0.1824
     27 F5          3.2212    1.5810   -4.3128 F         1 <0>        -0.1820
     28 F6          3.8006   -0.5119   -3.6034 F         1 <0>        -0.1787
     29 H3          1.5534    1.7537    0.3523 H         1 <0>         0.0546
     30 H4         -0.0594    2.0460   -0.3418 H         1 <0>         0.0540
     31 H5          0.1319    1.8609    1.4182 H         1 <0>         0.0591
     32 H6          0.9030   -0.5028    1.0310 H         1 <0>         0.0729
     33 H7         -0.7712   -0.2164    0.4988 H         1 <0>         0.0797
     34 H8         -0.7030   -2.1083   -1.0856 H         1 <0>         0.1248
     35 H9          0.6001   -2.2270   -2.2962 H         1 <0>         0.0763
     36 H10         4.7063    0.0481   -1.0682 H         1 <0>         0.1379
     37 H11         6.2675   -1.5840   -0.1074 H         1 <0>         0.1447
     38 H12         3.4550   -6.4226    1.6741 H         1 <0>         0.1719
     39 H13         1.8648    1.7193   -2.0720 H         1 <0>         0.1260
     40 H14         3.5368    1.2516   -1.6797 H         1 <0>         0.1201
@<TRIPOS>BOND
     1    1    2 1
     2    1   29 1
     3    1   30 1
     4    1   31 1
     5    2    3 1
     6    2   32 1
     7    2   33 1
     8    3    4 1
     9    3   23 1
    10    3    5 1
    11    5    6 1
    12    5   34 1
    13    5   35 1
    14    6    7 1
    15    7   12 ar
    16    7    8 ar
    17    8    9 ar
    18    8   23 1
    19    9   10 ar
    20    9   36 1
    21   10   11 ar
    22   10   37 1
    23   11   17 1
    24   11   12 ar
    25   12   13 1
    26   13   14 2
    27   13   19 1
    28   14   15 1
    29   14   38 1
    30   15   16 2
    31   15   17 am
    32   17   18 1
    33   19   20 1
    34   19   21 1
    35   19   22 1
    36   23   24 1
    37   24   25 1
    38   24   39 1
    39   24   40 1
    40   25   26 1
    41   25   27 1
    42   25   28 1
@<TRIPOS>MOLECULE
CHEMBL1083487
   56    60     0     0     0
SMALL
USER_CHARGES

@<TRIPOS>ATOM
      1 C1         -0.2967    1.5925   -0.8178 C.3       1 <0>         0.0664
      2 N1         -0.5231    0.1655   -0.5756 N.pl3     1 <0>        -0.9394
      3 C2         -0.7995   -0.2884    0.7161 C.ar      1 <0>         0.1639
      4 C3         -0.4628   -1.5845    1.0855 C.ar      1 <0>        -0.1577
      5 C4         -0.7370   -2.0299    2.3636 C.ar      1 <0>        -0.0817
      6 C5         -1.3465   -1.1873    3.2752 C.ar      1 <0>        -0.1385
      7 C6         -1.6830    0.1035    2.9109 C.ar      1 <0>        -0.0897
      8 C7         -1.4064    0.5572    1.6361 C.ar      1 <0>        -0.1450
      9 S1         -0.4514   -0.9095   -1.8332 S.o2      1 <0>         2.6865
     10 O1         -1.1886   -2.0556   -1.4304 O.2       1 <0>        -0.9326
     11 O2         -0.7636   -0.1781   -3.0109 O.2       1 <0>        -0.9363
     12 C8          1.2281   -1.4195   -1.9875 C.ar      1 <0>        -0.6854
     13 C9          2.1249   -0.6347   -2.6902 C.ar      1 <0>         0.0163
     14 C10         3.4415   -1.0291   -2.8138 C.ar      1 <0>        -0.1259
     15 C11         3.8671   -2.2204   -2.2291 C.ar      1 <0>         0.0771
     16 C12         2.9597   -3.0068   -1.5226 C.ar      1 <0>        -0.1951
     17 C13         1.6463   -2.6000   -1.4009 C.ar      1 <0>         0.0287
     18 C14         3.4126   -4.2963   -0.8877 C.3       1 <0>         0.5115
     19 F1          2.3747   -4.8240   -0.1122 F         1 <0>        -0.1722
     20 F2          3.7596   -5.2116   -1.8873 F         1 <0>        -0.1699
     21 F3          4.5240   -4.0505   -0.0743 F         1 <0>        -0.1663
     22 C15         5.2816   -2.6499   -2.3591 C.ar      1 <0>        -0.1274
     23 C16         6.3082   -1.8226   -1.8876 C.ar      1 <0>        -0.0359
     24 C17         7.6135   -2.2009   -1.9990 C.ar      1 <0>        -0.1375
     25 C18         7.9411   -3.4212   -2.5863 C.ar      1 <0>         0.1420
     26 C19         6.9178   -4.2633   -3.0644 C.ar      1 <0>        -0.1728
     27 C20         5.5819   -3.8711   -2.9415 C.ar      1 <0>        -0.0146
     28 C21         7.5799   -5.4437   -3.6124 C.2       1 <0>         0.0963
     29 N2          8.8642   -5.2869   -3.4597 N.2       1 <0>        -0.2428
     30 N3          9.1286   -4.0633   -2.8362 N.pl3     1 <0>        -0.3552
     31 C22        10.4011   -3.5715   -2.5181 C.ar      1 <0>         0.1536
     32 C23        10.6584   -2.2088   -2.5921 C.ar      1 <0>        -0.1092
     33 C24        11.9134   -1.7260   -2.2777 C.ar      1 <0>        -0.1275
     34 C25        12.9152   -2.5997   -1.8892 C.ar      1 <0>         0.0957
     35 C26        12.6608   -3.9589   -1.8147 C.ar      1 <0>        -0.1293
     36 C27        11.4055   -4.4453   -2.1228 C.ar      1 <0>        -0.0867
     37 F4         14.1426   -2.1254   -1.5828 F         1 <0>        -0.1331
     38 H1          0.7646    1.8156   -0.7088 H         1 <0>         0.0686
     39 H2         -0.6192    1.8452   -1.8279 H         1 <0>         0.0944
     40 H3         -0.8671    2.1783   -0.0970 H         1 <0>         0.0909
     41 H4          0.0125   -2.2432    0.3738 H         1 <0>         0.1227
     42 H5         -0.4755   -3.0374    2.6515 H         1 <0>         0.1311
     43 H6         -1.5605   -1.5384    4.2739 H         1 <0>         0.1270
     44 H7         -2.1589    0.7589    3.6252 H         1 <0>         0.1292
     45 H8         -1.6654    1.5669    1.3535 H         1 <0>         0.1309
     46 H9          1.7939    0.2881   -3.1432 H         1 <0>         0.1526
     47 H10         4.1407   -0.4159   -3.3628 H         1 <0>         0.1516
     48 H11         0.9429   -3.2068   -0.8499 H         1 <0>         0.1590
     49 H12         6.0637   -0.8748   -1.4313 H         1 <0>         0.1381
     50 H13         8.3954   -1.5528   -1.6314 H         1 <0>         0.1358
     51 H14         4.7907   -4.5121   -3.3016 H         1 <0>         0.1510
     52 H15         7.0920   -6.2951   -4.0635 H         1 <0>         0.2074
     53 H16         9.8776   -1.5272   -2.8957 H         1 <0>         0.1413
     54 H17        12.1139   -0.6663   -2.3351 H         1 <0>         0.1475
     55 H18        13.4434   -4.6386   -1.5116 H         1 <0>         0.1471
     56 H19        11.2063   -5.5049   -2.0607 H         1 <0>         0.1439
@<TRIPOS>BOND
     1    1    2 1
     2    1   38 1
     3    1   39 1
     4    1   40 1
     5    2    3 1
     6    2    9 1
     7    3    8 ar
     8    3    4 ar
     9    4    5 ar
    10    4   41 1
    11    5    6 ar
    12    5   42 1
    13    6    7 ar
    14    6   43 1
    15    7    8 ar
    16    7   44 1
    17    8   45 1
    18    9   10 2
    19    9   11 2
    20    9   12 1
    21   12   17 ar
    22   12   13 ar
    23   13   14 ar
    24   13   46 1
    25   14   15 ar
    26   14   47 1
    27   15   16 ar
    28   15   22 1
    29   16   17 ar
    30   16   18 1
    31   17   48 1
    32   18   19 1
    33   18   20 1
    34   18   21 1
    35   22   27 ar
    36   22   23 ar
    37   23   24 ar
    38   23   49 1
    39   24   25 ar
    40   24   50 1
    41   25   30 1
    42   25   26 ar
    43   26   27 ar
    44   26   28 1
    45   27   51 1
    46   28   29 2
    47   28   52 1
    48   29   30 1
    49   30   31 1
    50   31   36 ar
    51   31   32 ar
    52   32   33 ar
    53   32   53 1
    54   33   34 ar
    55   33   54 1
    56   34   35 ar
    57   34   37 1
    58   35   36 ar
    59   35   55 1
    60   36   56 1
@<TRIPOS>MOLECULE
CHEMBL70820
   32    34     0     0     0
SMALL
USER_CHARGES

@<TRIPOS>ATOM
      1 C1         -0.0187    1.5258    0.0104 C.3       1 <0>        -0.1728
      2 C2          0.0021   -0.0041    0.0020 C.3       1 <0>         0.1667
      3 C3          0.7216   -0.4929   -1.2299 C.ar      1 <0>        -0.1603
      4 C4          0.0416   -0.7162   -2.4035 C.ar      1 <0>        -0.0429
      5 C5          0.7346   -1.1674   -3.5311 C.ar      1 <0>        -0.0511
      6 C6          2.1126   -1.3889   -3.4596 C.ar      1 <0>        -0.0456
      7 C7          2.7867   -1.1634   -2.2786 C.ar      1 <0>        -0.1437
      8 C8          2.0949   -0.7163   -1.1615 C.ar      1 <0>         0.1802
      9 N1          2.7551   -0.4833    0.0492 N.am      1 <0>        -0.6676
     10 C9          2.0325   -0.3556    1.1813 C.2       1 <0>         0.6620
     11 O1          2.5978   -0.1250    2.2319 O.2       1 <0>        -0.4968
     12 O2          0.6935   -0.4805    1.1602 O.3       1 <0>        -0.3297
     13 C10         0.0117   -1.4099   -4.7948 C.2       1 <0>         0.0767
     14 C11         0.5704   -1.8541   -5.9588 C.2       1 <0>        -0.1944
     15 C12        -0.4601   -1.9467   -6.9005 C.2       1 <0>        -0.1099
     16 C13        -1.6169   -1.5509   -6.2645 C.2       1 <0>         0.0368
     17 O3         -1.3073   -1.2358   -4.9892 O.3       1 <0>        -0.1490
     18 C14        -2.9211   -1.4899   -6.8527 C.1       1 <0>         0.2861
     19 N2         -3.9557   -1.4416   -7.3194 N.1       1 <0>        -0.3716
     20 C15        -1.4324   -0.5363    0.0063 C.3       1 <0>        -0.1444
     21 H1          1.0039    1.9031    0.0027 H         1 <0>         0.0617
     22 H2         -0.5459    1.8868   -0.8726 H         1 <0>         0.0852
     23 H3         -0.5289    1.8773    0.9072 H         1 <0>         0.0810
     24 H4         -1.0234   -0.5441   -2.4544 H         1 <0>         0.1441
     25 H5          2.6494   -1.7370   -4.3297 H         1 <0>         0.1441
     26 H6          3.8517   -1.3341   -2.2227 H         1 <0>         0.1449
     27 H7          3.7223   -0.4147    0.0748 H         1 <0>         0.4323
     28 H8          1.6118   -2.0892   -6.1219 H         1 <0>         0.1663
     29 H9         -0.3670   -2.2667   -7.9278 H         1 <0>         0.1687
     30 H10        -1.9562   -0.1761   -0.8792 H         1 <0>         0.0878
     31 H11        -1.4156   -1.6261    0.0003 H         1 <0>         0.0747
     32 H12        -1.9473   -0.1857    0.9008 H         1 <0>         0.0804
@<TRIPOS>BOND
     1    1    2 1
     2    1   21 1
     3    1   22 1
     4    1   23 1
     5    2   12 1
     6    2    3 1
     7    2   20 1
     8    3    8 ar
     9    3    4 ar
    10    4    5 ar
    11    4   24 1
    12    5    6 ar
    13    5   13 1
    14    6    7 ar
    15    6   25 1
    16    7    8 ar
    17    7   26 1
    18    8    9 1
    19    9   10 am
    20    9   27 1
    21   10   11 2
    22   10   12 1
    23   13   17 1
    24   13   14 2
    25   14   15 1
    26   14   28 1
    27   15   16 2
    28   15   29 1
    29   16   17 1
    30   16   18 1
    31   18   19 3
    32   20   30 1
    33   20   31 1
    34   20   32 1
@<TRIPOS>MOLECULE
CHEMBL48745
   40    41     0     0     0
SMALL
USER_CHARGES

@<TRIPOS>ATOM
      1 C1         -0.6413    1.6265    0.4286 C.3       1 <0>        -0.1382
      2 C2         -0.1830    0.1748    0.2749 C.3       1 <0>        -0.0635
      3 C3          0.7471    0.0249   -0.9558 C.3       1 <0>        -0.1138
      4 C4          1.5718   -1.2357   -0.5956 C.3       1 <0>        -0.0965
      5 C5          1.8079   -1.1190    0.8998 C.2       1 <0>        -0.1175
      6 C6          2.7813   -1.6750    1.5777 C.2       1 <0>        -0.1909
      7 C7          0.7102   -0.2403    1.4623 C.3       1 <0>        -0.0459
      8 C8         -0.1129   -1.0234    2.4871 C.3       1 <0>        -0.0654
      9 C9          0.7258   -1.2838    3.7118 C.ar      1 <0>        -0.0512
     10 C10         1.2580   -2.5401    3.9301 C.ar      1 <0>        -0.1789
     11 C11         2.0296   -2.7800    5.0567 C.ar      1 <0>         0.1493
     12 C12         2.2675   -1.7581    5.9653 C.ar      1 <0>        -0.1169
     13 C13         1.7352   -0.5018    5.7467 C.ar      1 <0>        -0.0752
     14 C14         0.9679   -0.2610    4.6164 C.ar      1 <0>         0.0746
     15 O1          0.4486    0.9767    4.3983 O.3       1 <0>        -0.4855
     16 Br1         3.3194   -2.0851    7.5023 Br        1 <0>        -0.0306
     17 O2          2.5530   -4.0167    5.2717 O.3       1 <0>        -0.3011
     18 C15         2.2673   -5.0207    4.2958 C.3       1 <0>         0.0238
     19 C16        -1.3896   -0.7587    0.1577 C.3       1 <0>        -0.1412
     20 H1          0.2297    2.2810    0.4614 H         1 <0>         0.0562
     21 H2         -1.2701    1.9006   -0.4185 H         1 <0>         0.0556
     22 H3         -1.2101    1.7320    1.3525 H         1 <0>         0.0564
     23 H4          0.1659   -0.1383   -1.8634 H         1 <0>         0.0701
     24 H5          1.3950    0.8952   -1.0603 H         1 <0>         0.0700
     25 H6          1.0051   -2.1389   -0.8221 H         1 <0>         0.0750
     26 H7          2.5206   -1.2360   -1.1320 H         1 <0>         0.0689
     27 H8          3.4705   -2.3435    1.0833 H         1 <0>         0.0984
     28 H9          2.8945   -1.4648    2.6310 H         1 <0>         0.1026
     29 H10         1.1435    0.6441    1.9295 H         1 <0>         0.0898
     30 H11        -0.9928   -0.4436    2.7658 H         1 <0>         0.0804
     31 H12        -0.4260   -1.9727    2.0526 H         1 <0>         0.0769
     32 H13         1.0726   -3.3353    3.2233 H         1 <0>         0.1402
     33 H14         1.9198    0.2935    6.4536 H         1 <0>         0.1447
     34 H15        -0.4573    1.0852    4.7189 H         1 <0>         0.3869
     35 H16         1.1892   -5.1665    4.2293 H         1 <0>         0.0577
     36 H17         2.6517   -4.7046    3.3260 H         1 <0>         0.0594
     37 H18         2.7433   -5.9569    4.5876 H         1 <0>         0.1051
     38 H19        -1.9879   -0.4722   -0.7072 H         1 <0>         0.0554
     39 H20        -1.0442   -1.7854    0.0365 H         1 <0>         0.0562
     40 H21        -1.9961   -0.6835    1.0602 H         1 <0>         0.0588
@<TRIPOS>BOND
     1    1    2 1
     2    1   20 1
     3    1   21 1
     4    1   22 1
     5    2    7 1
     6    2    3 1
     7    2   19 1
     8    3    4 1
     9    3   23 1
    10    3   24 1
    11    4    5 1
    12    4   25 1
    13    4   26 1
    14    5    6 2
    15    5    7 1
    16    6   27 1
    17    6   28 1
    18    7    8 1
    19    7   29 1
    20    8    9 1
    21    8   30 1
    22    8   31 1
    23    9   14 ar
    24    9   10 ar
    25   10   11 ar
    26   10   32 1
    27   11   12 ar
    28   11   17 1
    29   12   13 ar
    30   12   16 1
    31   13   14 ar
    32   13   33 1
    33   14   15 1
    34   15   34 1
    35   17   18 1
    36   18   35 1
    37   18   36 1
    38   18   37 1
    39   19   38 1
    40   19   39 1
    41   19   40 1
@<TRIPOS>MOLECULE
CHEMBL48745__1
   40    41     0     0     0
SMALL
USER_CHARGES

@<TRIPOS>ATOM
      1 C1         -0.0187    1.5258    0.0104 C.3       1 <0>        -0.1390
      2 C2          0.0021   -0.0041    0.0020 C.3       1 <0>        -0.0626
      3 C3         -1.4329   -0.5690    0.1560 C.3       1 <0>        -0.1138
      4 C4         -1.6583   -0.4868    1.6862 C.3       1 <0>        -0.0969
      5 C5         -0.3109   -0.8460    2.2871 C.2       1 <0>        -0.1178
      6 C6         -0.0996   -1.3290    3.4864 C.2       1 <0>        -0.1938
      7 C7          0.7435   -0.5429    1.2430 C.3       1 <0>        -0.0445
      8 C8          1.5054   -1.8200    0.8833 C.3       1 <0>        -0.0727
      9 C9          2.3223   -2.2681    2.0678 C.ar      1 <0>        -0.0483
     10 C10         1.8619   -3.2880    2.8784 C.ar      1 <0>        -0.1781
     11 C11         2.6131   -3.7005    3.9682 C.ar      1 <0>         0.1484
     12 C12         3.8279   -3.0888    4.2450 C.ar      1 <0>        -0.1164
     13 C13         4.2881   -2.0689    3.4343 C.ar      1 <0>        -0.0775
     14 C14         3.5386   -1.6605    2.3407 C.ar      1 <0>         0.0743
     15 O1          3.9940   -0.6606    1.5396 O.3       1 <0>        -0.4861
     16 Br1         4.8526   -3.6507    5.7317 Br        1 <0>        -0.0304
     17 O2          2.1596   -4.7040    4.7661 O.3       1 <0>        -0.3009
     18 C15         0.9013   -5.2879    4.4224 C.3       1 <0>         0.0236
     19 C16         0.6531   -0.5243   -1.2811 C.3       1 <0>        -0.1446
     20 H1          1.0039    1.9031    0.0027 H         1 <0>         0.0565
     21 H2         -0.5459    1.8868   -0.8726 H         1 <0>         0.0577
     22 H3         -0.5289    1.8773    0.9072 H         1 <0>         0.0561
     23 H4         -2.1533    0.0525   -0.3758 H         1 <0>         0.0703
     24 H5         -1.4818   -1.6021   -0.1881 H         1 <0>         0.0694
     25 H6         -1.9466    0.5240    1.9749 H         1 <0>         0.0771
     26 H7         -2.4176   -1.2039    1.9982 H         1 <0>         0.0689
     27 H8         -0.9319   -1.5067    4.1513 H         1 <0>         0.0992
     28 H9          0.9069   -1.5494    3.8101 H         1 <0>         0.1060
     29 H10         1.4353    0.2103    1.6199 H         1 <0>         0.0761
     30 H11         0.7961   -2.6027    0.6142 H         1 <0>         0.0756
     31 H12         2.1667   -1.6231    0.0395 H         1 <0>         0.0938
     32 H13         0.9164   -3.7637    2.6631 H         1 <0>         0.1411
     33 H14         5.2332   -1.5925    3.6495 H         1 <0>         0.1449
     34 H15         3.7148    0.2230    1.8160 H         1 <0>         0.3864
     35 H16         0.1265   -4.5216    4.4466 H         1 <0>         0.0594
     36 H17         0.9599   -5.7138    3.4208 H         1 <0>         0.0579
     37 H18         0.6578   -6.0735    5.1377 H         1 <0>         0.1052
     38 H19         1.6811   -0.1662   -1.3379 H         1 <0>         0.0597
     39 H20         0.6478   -1.6142   -1.2751 H         1 <0>         0.0599
     40 H21         0.0943   -0.1629   -2.1444 H         1 <0>         0.0560
@<TRIPOS>BOND
     1    1    2 1
     2    1   20 1
     3    1   21 1
     4    1   22 1
     5    2    7 1
     6    2    3 1
     7    2   19 1
     8    3    4 1
     9    3   23 1
    10    3   24 1
    11    4    5 1
    12    4   25 1
    13    4   26 1
    14    5    6 2
    15    5    7 1
    16    6   27 1
    17    6   28 1
    18    7    8 1
    19    7   29 1
    20    8    9 1
    21    8   30 1
    22    8   31 1
    23    9   14 ar
    24    9   10 ar
    25   10   11 ar
    26   10   32 1
    27   11   12 ar
    28   11   17 1
    29   12   13 ar
    30   12   16 1
    31   13   14 ar
    32   13   33 1
    33   14   15 1
    34   15   34 1
    35   17   18 1
    36   18   35 1
    37   18   36 1
    38   18   37 1
    39   19   38 1
    40   19   39 1
    41   19   40 1
@<TRIPOS>MOLECULE
CHEMBL1215331
   51    55     0     0     0
SMALL
USER_CHARGES

@<TRIPOS>ATOM
      1 C1         -0.0274    1.4623    0.0266 C.ar      1 <0>        -0.0935
      2 C2          1.1602    2.1396    0.0150 C.ar      1 <0>        -0.0891
      3 C3          2.3594    1.4323   -0.0064 C.ar      1 <0>        -0.0540
      4 C4          2.3762    0.0284   -0.0245 C.ar      1 <0>        -0.0653
      5 C5          1.1825   -0.6428   -0.0041 C.ar      1 <0>        -0.0910
      6 C6         -0.0245    0.0626    0.0205 C.ar      1 <0>        -0.1035
      7 C7         -1.3004   -0.6716    0.0402 C.2       1 <0>         0.5154
      8 O1         -2.3588   -0.0583    0.0618 O.co2     1 <0>        -0.6824
      9 O2         -1.3023   -1.8951    0.0350 O.co2     1 <0>        -0.6839
     10 C8          3.6556   -0.7567   -0.0847 C.3       1 <0>        -0.0807
     11 C9          4.8854    0.0468    0.3340 C.3       1 <0>        -0.2015
     12 C10         4.9112    1.3617   -0.4444 C.3       1 <0>        -0.1038
     13 H1          4.9064    1.1827   -1.5196 H         1 <0>         0.1046
     14 C11         3.6620    2.1196   -0.0011 C.2       1 <0>         0.1602
     15 N1          3.9895    3.3046    0.3453 N.2       1 <0>        -0.2447
     16 N2          5.3676    3.5330    0.3526 N.pl3     1 <0>        -0.4649
     17 C12         6.0693    2.2762   -0.0409 C.3       1 <0>         0.1228
     18 H2          6.7376    2.4453   -0.8852 H         1 <0>         0.0962
     19 C13         6.8348    1.6861    1.1451 C.3       1 <0>        -0.0974
     20 C14         7.5691    0.4001    0.7130 C.3       1 <0>        -0.1283
     21 C15         7.4526   -0.5351    1.9422 C.3       1 <0>        -0.1197
     22 C16         6.0232   -0.2408    2.4613 C.3       1 <0>        -0.1634
     23 C17         5.8519    1.2786    2.2567 C.3       1 <0>        -0.1292
     24 C18         5.9874    4.7383    0.6649 C.ar      1 <0>         0.2917
     25 C19         7.3770    4.8087    0.7299 C.ar      1 <0>        -0.1938
     26 C20         7.9941    5.9992    1.0381 C.ar      1 <0>        -0.0088
     27 C21         7.2248    7.1404    1.2865 C.ar      1 <0>        -0.0884
     28 C22         5.8289    7.0671    1.2207 C.ar      1 <0>         0.0532
     29 C23         5.2179    5.8725    0.9062 C.ar      1 <0>        -0.1656
     30 Cl1         4.8686    8.4801    1.5287 Cl        1 <0>        -0.0507
     31 C24         7.8639    8.3809    1.6080 C.1       1 <0>         0.2613
     32 N3          8.3710    9.3649    1.8630 N.1       1 <0>        -0.4205
     33 H3         -0.9617    2.0038    0.0447 H         1 <0>         0.1332
     34 H4          1.1681    3.2196    0.0221 H         1 <0>         0.1235
     35 H5          1.1735   -1.7228   -0.0070 H         1 <0>         0.1318
     36 H6          3.5648   -1.6226    0.5712 H         1 <0>         0.0793
     37 H7          3.8006   -1.1097   -1.1057 H         1 <0>         0.0733
     38 H8          4.8373    0.2566    1.4025 H         1 <0>         0.1568
     39 H9          5.7868   -0.5250    0.1137 H         1 <0>         0.0951
     40 H10         7.5497    2.4146    1.5275 H         1 <0>         0.0839
     41 H11         7.0802   -0.0456   -0.1532 H         1 <0>         0.0859
     42 H12         8.6154    0.6135    0.4939 H         1 <0>         0.0663
     43 H13         7.5477   -1.5791    1.6436 H         1 <0>         0.0698
     44 H14         8.1976   -0.2781    2.6952 H         1 <0>         0.0661
     45 H15         5.2847   -0.7900    1.8774 H         1 <0>         0.1101
     46 H16         5.9413   -0.4950    3.5180 H         1 <0>         0.0631
     47 H17         6.0904    1.8088    3.1788 H         1 <0>         0.0625
     48 H18         4.8296    1.5013    1.9512 H         1 <0>         0.0828
     49 H19         7.9711    3.9273    0.5383 H         1 <0>         0.1400
     50 H20         9.0716    6.0523    1.0884 H         1 <0>         0.1430
     51 H21         4.1408    5.8156    0.8507 H         1 <0>         0.1520
@<TRIPOS>BOND
     1    1    6 ar
     2    1    2 ar
     3    1   33 1
     4    2    3 ar
     5    2   34 1
     6    3   14 1
     7    3    4 ar
     8    4    5 ar
     9    4   10 1
    10    5    6 ar
    11    5   35 1
    12    6    7 1
    13    7    8 2
    14    7    9 1
    15   10   11 1
    16   10   36 1
    17   10   37 1
    18   11   12 1
    19   11   38 1
    20   11   39 1
    21   12   13 1
    22   12   17 1
    23   12   14 1
    24   14   15 2
    25   15   16 1
    26   16   17 1
    27   16   24 1
    28   17   18 1
    29   17   19 1
    30   19   23 1
    31   19   20 1
    32   19   40 1
    33   20   21 1
    34   20   41 1
    35   20   42 1
    36   21   22 1
    37   21   43 1
    38   21   44 1
    39   22   23 1
    40   22   45 1
    41   22   46 1
    42   23   47 1
    43   23   48 1
    44   24   29 ar
    45   24   25 ar
    46   25   26 ar
    47   25   49 1
    48   26   27 ar
    49   26   50 1
    50   27   28 ar
    51   27   31 1
    52   28   29 ar
    53   28   30 1
    54   29   51 1
    55   31   32 3
@<TRIPOS>MOLECULE
CHEMBL197100
   64    67     0     0     0
SMALL
USER_CHARGES

@<TRIPOS>ATOM
      1 C1         -0.0552    1.5112    0.6282 C.3       1 <0>        -0.1416
      2 C2         -0.1339    0.1676   -0.0995 C.3       1 <0>        -0.0033
      3 C3          0.8857   -0.8000    0.5045 C.3       1 <0>        -0.1641
      4 C4         -1.5411   -0.4134    0.0531 C.3       1 <0>        -0.1452
      5 C5         -2.0902   -0.0627    1.4375 C.3       1 <0>         0.1396
      6 C6         -1.1063   -0.5332    2.5106 C.3       1 <0>        -0.0858
      7 C7         -1.7257   -0.3550    3.8728 C.ar      1 <0>        -0.0809
      8 C8         -1.6396    0.8651    4.5169 C.ar      1 <0>        -0.1105
      9 C9         -2.2078    1.0285    5.7665 C.ar      1 <0>        -0.1243
     10 C10        -2.8624   -0.0279    6.3717 C.ar      1 <0>        -0.1210
     11 C11        -2.9492   -1.2477    5.7271 C.ar      1 <0>        -0.1143
     12 C12        -2.3848   -1.4099    4.4757 C.ar      1 <0>        -0.1000
     13 C13        -3.4383   -0.7567    1.6421 C.3       1 <0>         0.0911
     14 N1         -4.0966   -0.2046    2.8287 N.pl3     1 <0>        -0.7147
     15 C14        -5.2731   -0.7758    3.2999 C.ar      1 <0>         0.2695
     16 C15        -5.8222   -1.8762    2.6468 C.ar      1 <0>        -0.2137
     17 C16        -6.9781   -2.4442    3.1025 C.ar      1 <0>         0.0206
     18 C17        -7.6159   -1.9204    4.2305 C.ar      1 <0>        -0.2677
     19 C18        -7.0626   -0.8137    4.8865 C.ar      1 <0>        -0.0490
     20 C19        -5.8988   -0.2498    4.4290 C.ar      1 <0>        -0.1754
     21 C20        -7.9816   -0.5080    6.0417 C.3       1 <0>         0.0898
     22 O1         -9.0375   -1.4714    5.9925 O.3       1 <0>        -0.3205
     23 C21        -8.8422   -2.2971    4.9505 C.2       1 <0>         0.5246
     24 O2         -9.5723   -3.2198    4.6469 O.2       1 <0>        -0.4627
     25 O3         -2.2629    1.3523    1.5370 O.3       1 <0>        -0.5427
     26 C22         0.1702    0.3697   -1.5616 C.ar      1 <0>        -0.0722
     27 C23        -0.7741    0.0425   -2.5157 C.ar      1 <0>        -0.1250
     28 C24        -0.4952    0.2284   -3.8588 C.ar      1 <0>         0.0644
     29 C25         0.7304    0.7420   -4.2482 C.ar      1 <0>        -0.1186
     30 C26         1.6763    1.0699   -3.2965 C.ar      1 <0>        -0.1780
     31 C27         1.3960    0.8895   -1.9498 C.ar      1 <0>         0.1253
     32 O4          2.3239    1.2171   -1.0119 O.3       1 <0>        -0.3022
     33 C28         3.5642    1.7472   -1.4838 C.3       1 <0>         0.0207
     34 F1         -1.4195   -0.0919   -4.7907 F         1 <0>        -0.1404
     35 H1          0.9347    1.9445    0.4851 H         1 <0>         0.0558
     36 H2         -0.8095    2.1873    0.2254 H         1 <0>         0.0573
     37 H3         -0.2348    1.3590    1.6925 H         1 <0>         0.0829
     38 H4          0.6224   -1.0040    1.5424 H         1 <0>         0.0754
     39 H5          0.8818   -1.7317   -0.0612 H         1 <0>         0.0518
     40 H6          1.8792   -0.3537    0.4627 H         1 <0>         0.0710
     41 H7         -2.1926    0.0065   -0.7132 H         1 <0>         0.0794
     42 H8         -1.5008   -1.4969   -0.0580 H         1 <0>         0.0806
     43 H9         -0.8725   -1.5860    2.3526 H         1 <0>         0.0882
     44 H10        -0.1912    0.0556    2.4477 H         1 <0>         0.1076
     45 H11        -1.1282    1.6905    4.0441 H         1 <0>         0.1236
     46 H12        -2.1399    1.9815    6.2701 H         1 <0>         0.1193
     47 H13        -3.3056    0.0996    7.3482 H         1 <0>         0.1179
     48 H14        -3.4604   -2.0732    6.2001 H         1 <0>         0.1164
     49 H15        -2.4559   -2.3618    3.9705 H         1 <0>         0.1135
     50 H16        -4.0680   -0.5924    0.7677 H         1 <0>         0.0660
     51 H17        -3.2792   -1.8263    1.7794 H         1 <0>         0.0757
     52 H18        -3.7115    0.5595    3.2857 H         1 <0>         0.4134
     53 H19        -5.3317   -2.2827    1.7747 H         1 <0>         0.1306
     54 H20        -7.3990   -3.2973    2.5912 H         1 <0>         0.1319
     55 H21        -5.4714    0.6009    4.9390 H         1 <0>         0.1291
     56 H22        -7.4395   -0.5964    6.9832 H         1 <0>         0.1143
     57 H23        -8.3890    0.4977    5.9383 H         1 <0>         0.1143
     58 H24        -2.8753    1.7206    0.8855 H         1 <0>         0.3761
     59 H25        -1.7302   -0.3588   -2.2135 H         1 <0>         0.1457
     60 H26         0.9470    0.8859   -5.2964 H         1 <0>         0.1372
     61 H27         2.6323    1.4701   -3.6004 H         1 <0>         0.1380
     62 H28         4.0483    1.0169   -2.1321 H         1 <0>         0.0562
     63 H29         3.3780    2.6635   -2.0440 H         1 <0>         0.0564
     64 H30         4.2123    1.9657   -0.6351 H         1 <0>         0.1024
@<TRIPOS>BOND
     1    1    2 1
     2    1   35 1
     3    1   36 1
     4    1   37 1
     5    2    3 1
     6    2    4 1
     7    2   26 1
     8    3   38 1
     9    3   39 1
    10    3   40 1
    11    4    5 1
    12    4   41 1
    13    4   42 1
    14    5    6 1
    15    5   13 1
    16    5   25 1
    17    6    7 1
    18    6   43 1
    19    6   44 1
    20    7   12 ar
    21    7    8 ar
    22    8    9 ar
    23    8   45 1
    24    9   10 ar
    25    9   46 1
    26   10   11 ar
    27   10   47 1
    28   11   12 ar
    29   11   48 1
    30   12   49 1
    31   13   14 1
    32   13   50 1
    33   13   51 1
    34   14   15 1
    35   14   52 1
    36   15   20 ar
    37   15   16 ar
    38   16   17 ar
    39   16   53 1
    40   17   18 ar
    41   17   54 1
    42   18   23 1
    43   18   19 ar
    44   19   20 ar
    45   19   21 1
    46   20   55 1
    47   21   22 1
    48   21   56 1
    49   21   57 1
    50   22   23 1
    51   23   24 2
    52   25   58 1
    53   26   31 ar
    54   26   27 ar
    55   27   28 ar
    56   27   59 1
    57   28   29 ar
    58   28   34 1
    59   29   30 ar
    60   29   60 1
    61   30   31 ar
    62   30   61 1
    63   31   32 1
    64   32   33 1
    65   33   62 1
    66   33   63 1
    67   33   64 1
@<TRIPOS>MOLECULE
CHEMBL197100__1
   64    67     0     0     0
SMALL
USER_CHARGES

@<TRIPOS>ATOM
      1 C1         -0.2342   -1.5978    0.2993 C.3       1 <0>        -0.1576
      2 C2         -0.7234   -0.9534   -0.9993 C.3       1 <0>        -0.0096
      3 C3         -1.9062   -1.7520   -1.5509 C.3       1 <0>        -0.1685
      4 C4         -1.1649    0.4847   -0.7202 C.3       1 <0>        -0.1316
      5 C5         -2.0328    0.5164    0.5394 C.3       1 <0>         0.1413
      6 C6         -2.6530    1.9062    0.6965 C.3       1 <0>        -0.0732
      7 C7         -1.5644    2.9480    0.6700 C.ar      1 <0>        -0.0771
      8 C8         -0.8748    3.2568    1.8277 C.ar      1 <0>        -0.0960
      9 C9          0.1237    4.2124    1.8034 C.ar      1 <0>        -0.1206
     10 C10         0.4330    4.8590    0.6213 C.ar      1 <0>        -0.1213
     11 C11        -0.2560    4.5496   -0.5365 C.ar      1 <0>        -0.1207
     12 C12        -1.2516    3.5909   -0.5131 C.ar      1 <0>        -0.1199
     13 C13        -3.1447   -0.5276    0.4191 C.3       1 <0>         0.0756
     14 N1         -4.2155   -0.2122    1.3678 N.pl3     1 <0>        -0.7319
     15 C14        -5.3404   -1.0255    1.4419 C.ar      1 <0>         0.2610
     16 C15        -5.4460   -2.1431    0.6179 C.ar      1 <0>        -0.2092
     17 C16        -6.5477   -2.9482    0.6837 C.ar      1 <0>         0.0210
     18 C17        -7.5767   -2.6516    1.5819 C.ar      1 <0>        -0.2628
     19 C18        -7.4692   -1.5273    2.4100 C.ar      1 <0>        -0.0493
     20 C19        -6.3588   -0.7247    2.3449 C.ar      1 <0>        -0.1796
     21 C20        -8.7260   -1.4972    3.2419 C.3       1 <0>         0.0895
     22 O1         -9.5089   -2.6262    2.8442 O.3       1 <0>        -0.3193
     23 C21        -8.8592   -3.3058    1.8841 C.2       1 <0>         0.5247
     24 O2         -9.2712   -4.3134    1.3440 O.2       1 <0>        -0.4601
     25 O3         -1.2256    0.2232    1.6816 O.3       1 <0>        -0.5552
     26 C22         0.3945   -0.9486   -2.0099 C.ar      1 <0>        -0.0713
     27 C23         0.8587    0.2481   -2.5213 C.ar      1 <0>        -0.1183
     28 C24         1.8859    0.2529   -3.4493 C.ar      1 <0>         0.0655
     29 C25         2.4493   -0.9412   -3.8667 C.ar      1 <0>        -0.1173
     30 C26         1.9871   -2.1390   -3.3570 C.ar      1 <0>        -0.1778
     31 C27         0.9617   -2.1449   -2.4227 C.ar      1 <0>         0.1229
     32 O4          0.5097   -3.3227   -1.9161 O.3       1 <0>        -0.3039
     33 C28         1.1401   -4.5158   -2.3864 C.3       1 <0>         0.0206
     34 F1          2.3389    1.4237   -3.9486 F         1 <0>        -0.1395
     35 H1          0.3294   -2.5014    0.0667 H         1 <0>         0.0717
     36 H2          0.4072   -0.8969    0.8336 H         1 <0>         0.0752
     37 H3         -1.0907   -1.8543    0.9228 H         1 <0>         0.0565
     38 H4         -2.5659   -2.0371   -0.7314 H         1 <0>         0.0732
     39 H5         -2.4570   -1.1393   -2.2645 H         1 <0>         0.0577
     40 H6         -1.5381   -2.6486   -2.0498 H         1 <0>         0.0726
     41 H7         -0.2861    1.1122   -0.5718 H         1 <0>         0.0900
     42 H8         -1.7399    0.8591   -1.5671 H         1 <0>         0.0769
     43 H9         -3.3497    2.0878   -0.1218 H         1 <0>         0.0870
     44 H10        -3.1855    1.9612    1.6460 H         1 <0>         0.0781
     45 H11        -1.1165    2.7516    2.7511 H         1 <0>         0.1224
     46 H12         0.6619    4.4541    2.7079 H         1 <0>         0.1197
     47 H13         1.2126    5.6061    0.6025 H         1 <0>         0.1194
     48 H14        -0.0146    5.0550   -1.4599 H         1 <0>         0.1204
     49 H15        -1.7873    3.3465   -1.4184 H         1 <0>         0.1182
     50 H16        -3.5436   -0.5183   -0.5952 H         1 <0>         0.0863
     51 H17        -2.7412   -1.5154    0.6418 H         1 <0>         0.0875
     52 H18        -4.1395    0.5642    1.9443 H         1 <0>         0.4056
     53 H19        -4.6526   -2.3745   -0.0773 H         1 <0>         0.1328
     54 H20        -6.6237   -3.8133    0.0416 H         1 <0>         0.1348
     55 H21        -6.2759    0.1394    2.9875 H         1 <0>         0.1332
     56 H22        -8.4749   -1.5715    4.3000 H         1 <0>         0.1161
     57 H23        -9.2768   -0.5759    3.0525 H         1 <0>         0.1162
     58 H24        -1.1812   -0.7176    1.9007 H         1 <0>         0.3797
     59 H25         0.4197    1.1801   -2.1972 H         1 <0>         0.1459
     60 H26         3.2501   -0.9360   -4.5912 H         1 <0>         0.1376
     61 H27         2.4264   -3.0702   -3.6830 H         1 <0>         0.1384
     62 H28         1.0121   -4.5930   -3.4661 H         1 <0>         0.0568
     63 H29         2.2032   -4.4832   -2.1480 H         1 <0>         0.0568
     64 H30         0.6859   -5.3812   -1.9038 H         1 <0>         0.1028
@<TRIPOS>BOND
     1    1    2 1
     2    1   35 1
     3    1   36 1
     4    1   37 1
     5    2    3 1
     6    2    4 1
     7    2   26 1
     8    3   38 1
     9    3   39 1
    10    3   40 1
    11    4    5 1
    12    4   41 1
    13    4   42 1
    14    5    6 1
    15    5   13 1
    16    5   25 1
    17    6    7 1
    18    6   43 1
    19    6   44 1
    20    7   12 ar
    21    7    8 ar
    22    8    9 ar
    23    8   45 1
    24    9   10 ar
    25    9   46 1
    26   10   11 ar
    27   10   47 1
    28   11   12 ar
    29   11   48 1
    30   12   49 1
    31   13   14 1
    32   13   50 1
    33   13   51 1
    34   14   15 1
    35   14   52 1
    36   15   20 ar
    37   15   16 ar
    38   16   17 ar
    39   16   53 1
    40   17   18 ar
    41   17   54 1
    42   18   23 1
    43   18   19 ar
    44   19   20 ar
    45   19   21 1
    46   20   55 1
    47   21   22 1
    48   21   56 1
    49   21   57 1
    50   22   23 1
    51   23   24 2
    52   25   58 1
    53   26   31 ar
    54   26   27 ar
    55   27   28 ar
    56   27   59 1
    57   28   29 ar
    58   28   34 1
    59   29   30 ar
    60   29   60 1
    61   30   31 ar
    62   30   61 1
    63   31   32 1
    64   32   33 1
    65   33   62 1
    66   33   63 1
    67   33   64 1
@<TRIPOS>MOLECULE
CHEMBL263091
   56    58     0     0     0
SMALL
USER_CHARGES

@<TRIPOS>ATOM
      1 C1         -2.0375    5.4530    0.4051 C.3       1 <0>        -0.1040
      2 C2         -1.5065    4.2148    1.0803 C.2       1 <0>         0.1575
      3 C3         -2.3974    3.0771    1.3543 C.ar      1 <0>        -0.0557
      4 C4         -3.6597    2.9575    0.7927 C.ar      1 <0>        -0.1015
      5 C5         -4.4427    1.8545    1.1079 C.ar      1 <0>         0.1734
      6 C6         -3.9713    0.8740    1.9798 C.ar      1 <0>        -0.1054
      7 C7         -2.7171    0.9791    2.5429 C.ar      1 <0>        -0.0259
      8 C8         -1.9210    2.0748    2.2344 C.ar      1 <0>        -0.1625
      9 C9         -0.5655    2.2622    2.7799 C.2       1 <0>         0.4868
     10 O1         -0.2361    1.7761    3.8451 O.2       1 <0>        -0.4337
     11 O2          0.2957    2.9985    2.0428 O.3       1 <0>        -0.1616
     12 N1         -0.2581    4.1385    1.4213 N.2       1 <0>        -0.2540
     13 N2         -5.7136    1.7267    0.5469 N.am      1 <0>        -0.6579
     14 C10        -6.1810    0.5091    0.2073 C.2       1 <0>         0.4907
     15 O3         -5.5248   -0.4816    0.4497 O.2       1 <0>        -0.4762
     16 C11        -7.5191    0.3786   -0.4735 C.3       1 <0>         0.0869
     17 C12        -8.0972   -1.0113   -0.1997 C.3       1 <0>        -0.1428
     18 C13        -9.5109   -1.0987   -0.7784 C.3       1 <0>        -0.0147
     19 C14       -10.3252   -2.1211    0.0169 C.3       1 <0>        -0.1354
     20 C15       -10.1848    0.2719   -0.6876 C.3       1 <0>        -0.1570
     21 C16        -9.4374   -1.5277   -2.2212 C.ar      1 <0>        -0.0552
     22 C17        -8.3157   -2.1834   -2.6911 C.ar      1 <0>        -0.1485
     23 C18        -8.2481   -2.5781   -4.0162 C.ar      1 <0>         0.0764
     24 C19        -9.3041   -2.3160   -4.8727 C.ar      1 <0>        -0.1247
     25 C20       -10.4267   -1.6606   -4.4057 C.ar      1 <0>        -0.1711
     26 C21       -10.4982   -1.2696   -3.0765 C.ar      1 <0>         0.1207
     27 O4        -11.6048   -0.6296   -2.6142 O.3       1 <0>        -0.2971
     28 C22       -12.6586   -0.3970   -3.5509 C.3       1 <0>         0.0169
     29 F1         -7.1506   -3.2191   -4.4743 F         1 <0>        -0.1385
     30 C23        -7.3450    0.5706   -1.9814 C.3       1 <0>         0.4700
     31 F2         -6.4601   -0.3940   -2.4752 F         1 <0>        -0.1602
     32 F3         -8.5847    0.4341   -2.6151 F         1 <0>        -0.1379
     33 F4         -6.8308    1.8472   -2.2327 F         1 <0>        -0.1734
     34 O5         -8.4106    1.3736    0.0335 O.3       1 <0>        -0.5155
     35 H1         -1.2308    6.1762    0.2859 H         1 <0>         0.0948
     36 H2         -2.4372    5.1898   -0.5742 H         1 <0>         0.1000
     37 H3         -2.8287    5.8886    1.0153 H         1 <0>         0.0991
     38 H4         -4.0300    3.7142    0.1169 H         1 <0>         0.1523
     39 H5         -4.5945    0.0243    2.2166 H         1 <0>         0.1550
     40 H6         -2.3572    0.2167    3.2178 H         1 <0>         0.1523
     41 H7         -6.2609    2.5143    0.4013 H         1 <0>         0.4250
     42 H8         -7.4656   -1.7662   -0.6680 H         1 <0>         0.1077
     43 H9         -8.1336   -1.1843    0.8758 H         1 <0>         0.1036
     44 H10       -10.4523   -1.7676    1.0401 H         1 <0>         0.0629
     45 H11       -11.3029   -2.2476   -0.4480 H         1 <0>         0.0667
     46 H12        -9.8004   -3.0764    0.0250 H         1 <0>         0.0572
     47 H13        -9.6946    0.9639   -1.3724 H         1 <0>         0.0879
     48 H14       -11.2368    0.1781   -0.9570 H         1 <0>         0.0731
     49 H15       -10.1030    0.6502    0.3314 H         1 <0>         0.0612
     50 H16        -7.4910   -2.3878   -2.0243 H         1 <0>         0.1461
     51 H17        -9.2498   -2.6238   -5.9065 H         1 <0>         0.1371
     52 H18       -11.2501   -1.4560   -5.0740 H         1 <0>         0.1381
     53 H19       -13.4793    0.1200   -3.0536 H         1 <0>         0.1012
     54 H20       -12.2866    0.2167   -4.3713 H         1 <0>         0.0557
     55 H21       -13.0138   -1.3503   -3.9423 H         1 <0>         0.0551
     56 H22        -8.5678    1.3125    0.9857 H         1 <0>         0.3991
@<TRIPOS>BOND
     1    1    2 1
     2    1   35 1
     3    1   36 1
     4    1   37 1
     5    2   12 2
     6    2    3 1
     7    3    8 ar
     8    3    4 ar
     9    4    5 ar
    10    4   38 1
    11    5    6 ar
    12    5   13 1
    13    6    7 ar
    14    6   39 1
    15    7    8 ar
    16    7   40 1
    17    8    9 1
    18    9   10 2
    19    9   11 1
    20   11   12 1
    21   13   14 am
    22   13   41 1
    23   14   15 2
    24   14   16 1
    25   16   17 1
    26   16   30 1
    27   16   34 1
    28   17   18 1
    29   17   42 1
    30   17   43 1
    31   18   19 1
    32   18   20 1
    33   18   21 1
    34   19   44 1
    35   19   45 1
    36   19   46 1
    37   20   47 1
    38   20   48 1
    39   20   49 1
    40   21   26 ar
    41   21   22 ar
    42   22   23 ar
    43   22   50 1
    44   23   24 ar
    45   23   29 1
    46   24   25 ar
    47   24   51 1
    48   25   26 ar
    49   25   52 1
    50   26   27 1
    51   27   28 1
    52   28   53 1
    53   28   54 1
    54   28   55 1
    55   30   31 1
    56   30   32 1
    57   30   33 1
    58   34   56 1
@<TRIPOS>MOLECULE
CHEMBL263091__1
   56    58     0     0     0
SMALL
USER_CHARGES

@<TRIPOS>ATOM
      1 C1         -2.2384   -1.0991   -8.1037 C.3       1 <0>        -0.1035
      2 C2         -1.5938   -1.7537   -6.9091 C.2       1 <0>         0.1573
      3 C3         -2.1821   -1.6007   -5.5698 C.ar      1 <0>        -0.0565
      4 C4         -3.4580   -1.0991   -5.3612 C.ar      1 <0>        -0.1018
      5 C5         -3.9381   -0.9797   -4.0634 C.ar      1 <0>         0.1731
      6 C6         -3.1507   -1.3575   -2.9766 C.ar      1 <0>        -0.1049
      7 C7         -1.8815   -1.8603   -3.1701 C.ar      1 <0>        -0.0256
      8 C8         -1.3889   -1.9889   -4.4625 C.ar      1 <0>        -0.1621
      9 C9         -0.0507   -2.5266   -4.7625 C.2       1 <0>         0.4864
     10 O1          0.8598   -2.4503   -3.9596 O.2       1 <0>        -0.4329
     11 O2          0.1195   -3.1091   -5.9703 O.3       1 <0>        -0.1617
     12 N1         -0.5176   -2.4623   -7.0512 N.2       1 <0>        -0.2543
     13 N2         -5.2208   -0.4763   -3.8451 N.am      1 <0>        -0.6571
     14 C10        -5.9784   -0.9720   -2.8467 C.2       1 <0>         0.4909
     15 O3         -5.5151   -1.7940   -2.0847 O.2       1 <0>        -0.4773
     16 C11        -7.4010   -0.5048   -2.6771 C.3       1 <0>         0.0867
     17 C12        -8.2093   -1.5837   -1.9534 C.3       1 <0>        -0.1404
     18 C13        -9.6788   -1.1628   -1.8889 C.3       1 <0>        -0.0138
     19 C14       -10.0619   -0.4478   -3.1861 C.3       1 <0>        -0.1515
     20 C15       -10.5572   -2.4029   -1.7115 C.3       1 <0>        -0.1353
     21 C16        -9.8837   -0.2310   -0.7223 C.ar      1 <0>        -0.0753
     22 C17        -9.0043   -0.2537    0.3431 C.ar      1 <0>        -0.1350
     23 C18        -9.1920    0.6024    1.4147 C.ar      1 <0>         0.0685
     24 C19       -10.2613    1.4822    1.4206 C.ar      1 <0>        -0.1189
     25 C20       -11.1420    1.5070    0.3568 C.ar      1 <0>        -0.1777
     26 C21       -10.9518    0.6536   -0.7203 C.ar      1 <0>         0.1304
     27 O4        -11.8146    0.6808   -1.7706 O.3       1 <0>        -0.2965
     28 C22       -12.8919    1.6172   -1.7010 C.3       1 <0>         0.0166
     29 F1         -8.3314    0.5792    2.4558 F         1 <0>        -0.1387
     30 C23        -7.4197    0.7846   -1.8538 C.3       1 <0>         0.4712
     31 F2         -6.5363    1.7111   -2.4181 F         1 <0>        -0.1753
     32 F3         -8.7136    1.3166   -1.8497 F         1 <0>        -0.1406
     33 F4         -7.0262    0.5052   -0.5406 F         1 <0>        -0.1565
     34 O5         -7.9778   -0.2585   -3.9611 O.3       1 <0>        -0.5155
     35 H1         -1.6625   -1.3308   -8.9997 H         1 <0>         0.0946
     36 H2         -3.2555   -1.4737   -8.2185 H         1 <0>         0.0995
     37 H3         -2.2633   -0.0193   -7.9569 H         1 <0>         0.0990
     38 H4         -4.0722   -0.8047   -6.1993 H         1 <0>         0.1523
     39 H5         -3.5384   -1.2551   -1.9738 H         1 <0>         0.1555
     40 H6         -1.2758   -2.1512   -2.3245 H         1 <0>         0.1524
     41 H7         -5.5674    0.2304   -4.4119 H         1 <0>         0.4251
     42 H8         -8.1246   -2.5258   -2.4951 H         1 <0>         0.1031
     43 H9         -7.8228   -1.7101   -0.9421 H         1 <0>         0.1069
     44 H10        -9.7160   -1.0320   -4.0388 H         1 <0>         0.0572
     45 H11       -11.1455   -0.3399   -3.2352 H         1 <0>         0.0711
     46 H12        -9.5973    0.5380   -3.2086 H         1 <0>         0.0893
     47 H13       -10.3450   -2.8635   -0.7466 H         1 <0>         0.0573
     48 H14       -11.6072   -2.1134   -1.7529 H         1 <0>         0.0670
     49 H15       -10.3451   -3.1154   -2.5087 H         1 <0>         0.0621
     50 H16        -8.1703   -0.9399    0.3401 H         1 <0>         0.1489
     51 H17       -10.4070    2.1491    2.2575 H         1 <0>         0.1369
     52 H18       -11.9761    2.1930    0.3618 H         1 <0>         0.1378
     53 H19       -13.5030    1.5353   -2.5999 H         1 <0>         0.1011
     54 H20       -13.5037    1.4027   -0.8248 H         1 <0>         0.0550
     55 H21       -12.4906    2.6278   -1.6254 H         1 <0>         0.0558
     56 H22        -7.9991   -1.0343   -4.5380 H         1 <0>         0.3998
@<TRIPOS>BOND
     1    1    2 1
     2    1   35 1
     3    1   36 1
     4    1   37 1
     5    2   12 2
     6    2    3 1
     7    3    8 ar
     8    3    4 ar
     9    4    5 ar
    10    4   38 1
    11    5    6 ar
    12    5   13 1
    13    6    7 ar
    14    6   39 1
    15    7    8 ar
    16    7   40 1
    17    8    9 1
    18    9   10 2
    19    9   11 1
    20   11   12 1
    21   13   14 am
    22   13   41 1
    23   14   15 2
    24   14   16 1
    25   16   17 1
    26   16   30 1
    27   16   34 1
    28   17   18 1
    29   17   42 1
    30   17   43 1
    31   18   19 1
    32   18   20 1
    33   18   21 1
    34   19   44 1
    35   19   45 1
    36   19   46 1
    37   20   47 1
    38   20   48 1
    39   20   49 1
    40   21   26 ar
    41   21   22 ar
    42   22   23 ar
    43   22   50 1
    44   23   24 ar
    45   23   29 1
    46   24   25 ar
    47   24   51 1
    48   25   26 ar
    49   25   52 1
    50   26   27 1
    51   27   28 1
    52   28   53 1
    53   28   54 1
    54   28   55 1
    55   30   31 1
    56   30   32 1
    57   30   33 1
    58   34   56 1
@<TRIPOS>MOLECULE
CHEMBL549725
   40    40     0     0     0
SMALL
USER_CHARGES

@<TRIPOS>ATOM
      1 C1          1.3639   -1.0444    0.6689 C.3       1 <0>        -0.1836
      2 C2          0.3537    0.0452    0.3040 C.3       1 <0>         0.1321
      3 C3          0.2661    1.0456    1.4277 C.2       1 <0>         0.4919
      4 O1         -0.7043    1.0571    2.1550 O.2       1 <0>        -0.5110
      5 N1          1.2662    1.9274    1.6243 N.am      1 <0>        -0.6162
      6 C4          1.1347    2.9679    2.6473 C.3       1 <0>         0.0838
      7 C5          2.4847    1.8455    0.8151 C.3       1 <0>         0.0641
      8 N2         -0.9619   -0.5616    0.0867 N.pl3     1 <0>        -0.5999
      9 C6         -1.6476   -0.3841   -1.1957 C.3       1 <0>         0.0797
     10 C7         -1.2891   -1.5414   -2.1301 C.3       1 <0>         0.4279
     11 F1         -1.7838   -2.7383   -1.6011 F         1 <0>        -0.1746
     12 F2         -1.8575   -1.3178   -3.3887 F         1 <0>        -0.1775
     13 F3          0.1017   -1.6264   -2.2549 F         1 <0>        -0.1799
     14 C8         -1.5604   -1.3066    1.0987 C.ar      1 <0>         0.2404
     15 C9         -0.9774   -1.3567    2.3617 C.ar      1 <0>        -0.1219
     16 C10        -1.5666   -2.0924    3.3646 C.ar      1 <0>        -0.0329
     17 C11        -2.7521   -2.7901    3.1136 C.ar      1 <0>        -0.0244
     18 C12        -3.3348   -2.7377    1.8440 C.ar      1 <0>        -0.0968
     19 C13        -2.7432   -1.9952    0.8470 C.ar      1 <0>        -0.1408
     20 C14        -4.6122   -3.4884    1.5687 C.3       1 <0>         0.5043
     21 F4         -4.9961   -3.2835    0.2391 F         1 <0>        -0.1712
     22 F5         -4.4071   -4.8545    1.7897 F         1 <0>        -0.1701
     23 F6         -5.6191   -3.0240    2.4217 F         1 <0>        -0.1705
     24 C15        -3.3675   -3.5570    4.1546 C.1       1 <0>         0.2387
     25 N3         -3.8558   -4.1654    4.9804 N.1       1 <0>        -0.3915
     26 H1          2.3582   -0.6054    0.7505 H         1 <0>         0.0840
     27 H2          1.0856   -1.4934    1.6224 H         1 <0>         0.0803
     28 H3          1.3675   -1.8108   -0.1062 H         1 <0>         0.0846
     29 H4          0.6763    0.5494   -0.6070 H         1 <0>         0.1216
     30 H5          1.5213    2.5956    3.5960 H         1 <0>         0.0587
     31 H6          1.7012    3.8486    2.3446 H         1 <0>         0.0731
     32 H7          0.0839    3.2336    2.7623 H         1 <0>         0.0781
     33 H8          2.3654    1.0725    0.0560 H         1 <0>         0.0823
     34 H9          2.6645    2.8055    0.3311 H         1 <0>         0.0698
     35 H10         3.3306    1.5978    1.4563 H         1 <0>         0.0690
     36 H11        -2.7252   -0.3693   -1.0325 H         1 <0>         0.1292
     37 H12        -1.3355    0.5575   -1.6473 H         1 <0>         0.1294
     38 H13        -0.0616   -0.8179    2.5548 H         1 <0>         0.1473
     39 H14        -1.1135   -2.1312    4.3442 H         1 <0>         0.1454
     40 H15        -3.1952   -1.9506   -0.1328 H         1 <0>         0.1474
@<TRIPOS>BOND
     1    1    2 1
     2    1   26 1
     3    1   27 1
     4    1   28 1
     5    2    3 1
     6    2    8 1
     7    2   29 1
     8    3    4 2
     9    3    5 am
    10    5    6 1
    11    5    7 1
    12    6   30 1
    13    6   31 1
    14    6   32 1
    15    7   33 1
    16    7   34 1
    17    7   35 1
    18    8    9 1
    19    8   14 1
    20    9   10 1
    21    9   36 1
    22    9   37 1
    23   10   11 1
    24   10   12 1
    25   10   13 1
    26   14   19 ar
    27   14   15 ar
    28   15   16 ar
    29   15   38 1
    30   16   17 ar
    31   16   39 1
    32   17   18 ar
    33   17   24 1
    34   18   19 ar
    35   18   20 1
    36   19   40 1
    37   20   21 1
    38   20   22 1
    39   20   23 1
    40   24   25 3
@<TRIPOS>MOLECULE
CHEMBL549725__1
   40    40     0     0     0
SMALL
USER_CHARGES

@<TRIPOS>ATOM
      1 C1         -0.7512   -1.7308    0.9086 C.3       1 <0>        -0.1786
      2 C2         -0.1968   -0.4970    0.1936 C.3       1 <0>         0.1291
      3 C3          0.9215    0.0970    1.0107 C.2       1 <0>         0.4920
      4 O1          2.0637    0.0407    0.6069 O.2       1 <0>        -0.5075
      5 N1          0.6522    0.6908    2.1903 N.am      1 <0>        -0.6171
      6 C4          1.7488    1.1500    3.0463 C.3       1 <0>         0.0847
      7 C5         -0.7370    0.8770    2.6164 C.3       1 <0>         0.0679
      8 N2          0.3136   -0.8844   -1.1239 N.pl3     1 <0>        -0.5991
      9 C6         -0.2578   -0.2896   -2.3347 C.3       1 <0>         0.0779
     10 C7          0.5046    0.9904   -2.6827 C.3       1 <0>         0.4267
     11 F1          1.8396    0.6773   -2.9600 F         1 <0>        -0.1724
     12 F2         -0.0770    1.5889   -3.8056 F         1 <0>        -0.1800
     13 F3          0.4483    1.8756   -1.6008 F         1 <0>        -0.1816
     14 C8          1.3414   -1.8175   -1.2252 C.ar      1 <0>         0.2449
     15 C9          1.9490   -2.3091   -0.0734 C.ar      1 <0>        -0.1238
     16 C10         2.9656   -3.2319   -0.1700 C.ar      1 <0>        -0.0305
     17 C11         3.3879   -3.6754   -1.4270 C.ar      1 <0>        -0.0256
     18 C12         2.7755   -3.1796   -2.5817 C.ar      1 <0>        -0.0947
     19 C13         1.7554   -2.2610   -2.4776 C.ar      1 <0>        -0.1417
     20 C14         3.2276   -3.6544   -3.9386 C.3       1 <0>         0.5044
     21 F4          2.4713   -3.0206   -4.9303 F         1 <0>        -0.1718
     22 F5          4.5805   -3.3442   -4.1143 F         1 <0>        -0.1695
     23 F6          3.0509   -5.0391   -4.0309 F         1 <0>        -0.1706
     24 C15         4.4457   -4.6351   -1.5313 C.1       1 <0>         0.2386
     25 N3          5.2848   -5.3964   -1.6140 N.1       1 <0>        -0.3914
     26 H1         -0.9769   -1.4793    1.9449 H         1 <0>         0.0820
     27 H2         -1.6613   -2.0621    0.4086 H         1 <0>         0.0819
     28 H3         -0.0104   -2.5299    0.8817 H         1 <0>         0.0817
     29 H4         -0.9903    0.2405    0.0733 H         1 <0>         0.1218
     30 H5          2.0007    2.1798    2.7930 H         1 <0>         0.0575
     31 H6          1.4409    1.0977    4.0906 H         1 <0>         0.0732
     32 H7          2.6207    0.5143    2.8923 H         1 <0>         0.0780
     33 H8         -1.4077    0.5227    1.8336 H         1 <0>         0.0789
     34 H9         -0.9154    0.3117    3.5311 H         1 <0>         0.0687
     35 H10        -0.9215    1.9352    2.8014 H         1 <0>         0.0691
     36 H11        -0.1764   -0.9968   -3.1601 H         1 <0>         0.1317
     37 H12        -1.3074   -0.0518   -2.1621 H         1 <0>         0.1307
     38 H13         1.6226   -1.9658    0.8971 H         1 <0>         0.1433
     39 H14         3.4369   -3.6127    0.7240 H         1 <0>         0.1456
     40 H15         1.2788   -1.8808   -3.3691 H         1 <0>         0.1456
@<TRIPOS>BOND
     1    1    2 1
     2    1   26 1
     3    1   27 1
     4    1   28 1
     5    2    3 1
     6    2    8 1
     7    2   29 1
     8    3    4 2
     9    3    5 am
    10    5    6 1
    11    5    7 1
    12    6   30 1
    13    6   31 1
    14    6   32 1
    15    7   33 1
    16    7   34 1
    17    7   35 1
    18    8    9 1
    19    8   14 1
    20    9   10 1
    21    9   36 1
    22    9   37 1
    23   10   11 1
    24   10   12 1
    25   10   13 1
    26   14   19 ar
    27   14   15 ar
    28   15   16 ar
    29   15   38 1
    30   16   17 ar
    31   16   39 1
    32   17   18 ar
    33   17   24 1
    34   18   19 ar
    35   18   20 1
    36   19   40 1
    37   20   21 1
    38   20   22 1
    39   20   23 1
    40   24   25 3
@<TRIPOS>MOLECULE
CHEMBL1165642
   54    57     0     0     0
SMALL
USER_CHARGES

@<TRIPOS>ATOM
      1 C1         -0.0167    1.3792    0.0096 C.ar      1 <0>        -0.1105
      2 C2          1.1686    2.0925    0.0021 C.ar      1 <0>        -0.1184
      3 C3          2.3774    1.4271   -0.0129 C.ar      1 <0>        -0.1040
      4 C4          2.4026    0.0331   -0.0206 C.ar      1 <0>        -0.0620
      5 C5          1.2048   -0.6804   -0.0130 C.ar      1 <0>        -0.1041
      6 C6          0.0021   -0.0041    0.0020 C.ar      1 <0>        -0.1189
      7 C7          3.6979   -0.6876   -0.0373 C.ar      1 <0>        -0.0038
      8 C8          4.8947    0.0304   -0.0395 C.ar      1 <0>        -0.1255
      9 C9          6.0939   -0.6339   -0.0545 C.ar      1 <0>        -0.0526
     10 C10         6.1173   -2.0337   -0.0675 C.ar      1 <0>        -0.1765
     11 C11         4.9154   -2.7517   -0.0653 C.ar      1 <0>        -0.0680
     12 C12         3.7187   -2.0831   -0.0449 C.ar      1 <0>        -0.1262
     13 C13         7.4017   -2.7483   -0.0841 C.2       1 <0>         0.3946
     14 O1          8.4422   -2.1253   -0.0864 O.2       1 <0>        -0.4361
     15 C14         7.4255   -4.2551   -0.0981 C.3       1 <0>        -0.1732
     16 C15         8.8758   -4.7421   -0.1138 C.3       1 <0>         0.1988
     17 C16         8.9004   -6.2425   -0.2517 C.ar      1 <0>        -0.0815
     18 C17         8.6746   -7.0419    0.8537 C.ar      1 <0>        -0.1105
     19 C18         8.6968   -8.4183    0.7288 C.ar      1 <0>        -0.0870
     20 C19         8.9454   -8.9971   -0.5015 C.ar      1 <0>        -0.1482
     21 C20         9.1716   -8.1979   -1.6089 C.ar      1 <0>         0.1046
     22 C21         9.1430   -6.8190   -1.4838 C.ar      1 <0>        -0.1443
     23 F1          9.4151   -8.7626   -2.8119 F         1 <0>        -0.1358
     24 N1          9.5343   -4.3557    1.1365 N.pl3     1 <0>        -0.7139
     25 C22        10.9220   -4.2027    1.1767 C.ar      1 <0>         0.2782
     26 C23        11.6788   -4.4109    0.0305 C.ar      1 <0>        -0.1926
     27 C24        13.0507   -4.2582    0.0736 C.ar      1 <0>        -0.0040
     28 C25        13.6712   -3.8986    1.2560 C.ar      1 <0>        -0.1115
     29 C26        12.9208   -3.6906    2.3988 C.ar      1 <0>        -0.0047
     30 C27        11.5480   -3.8364    2.3614 C.ar      1 <0>        -0.1939
     31 N2         15.1417   -3.7364    1.2985 N.pl3     1 <0>         0.0453
     32 O2         15.7990   -3.9184    0.3003 O.2       1 <0>        -0.1743
     33 O3         15.6855   -3.4221    2.3315 O.3       1 <0>        -0.1743
     34 H1         -0.9603    1.9042    0.0260 H         1 <0>         0.1256
     35 H2          1.1478    3.1723    0.0077 H         1 <0>         0.1271
     36 H3          3.3021    1.9850   -0.0191 H         1 <0>         0.1270
     37 H4          1.2182   -1.7603   -0.0193 H         1 <0>         0.1270
     38 H5         -0.9264   -0.5557    0.0079 H         1 <0>         0.1270
     39 H6          4.8762    1.1102   -0.0298 H         1 <0>         0.1332
     40 H7          7.0197   -0.0779   -0.0565 H         1 <0>         0.1361
     41 H8          4.9310   -3.8316   -0.0757 H         1 <0>         0.1340
     42 H9          2.7914   -2.6366   -0.0387 H         1 <0>         0.1334
     43 H10         6.9244   -4.6347    0.7923 H         1 <0>         0.1110
     44 H11         6.9106   -4.6183   -0.9875 H         1 <0>         0.1215
     45 H12         9.4014   -4.2912   -0.9556 H         1 <0>         0.1040
     46 H13         8.4810   -6.5904    1.8155 H         1 <0>         0.1270
     47 H14         8.5203   -9.0416    1.5929 H         1 <0>         0.1351
     48 H15         8.9634  -10.0726   -0.5987 H         1 <0>         0.1376
     49 H16         9.3150   -6.1944   -2.3480 H         1 <0>         0.1375
     50 H17         9.0065   -4.2061    1.9365 H         1 <0>         0.4058
     51 H18        11.1949   -4.6921   -0.8931 H         1 <0>         0.1407
     52 H19        13.6397   -4.4203   -0.8170 H         1 <0>         0.1504
     53 H20        13.4086   -3.4101    3.3207 H         1 <0>         0.1513
     54 H21        10.9622   -3.6697    3.2533 H         1 <0>         0.1425
@<TRIPOS>BOND
     1    1    6 ar
     2    1    2 ar
     3    1   34 1
     4    2    3 ar
     5    2   35 1
     6    3    4 ar
     7    3   36 1
     8    4    5 ar
     9    4    7 1
    10    5    6 ar
    11    5   37 1
    12    6   38 1
    13    7   12 ar
    14    7    8 ar
    15    8    9 ar
    16    8   39 1
    17    9   10 ar
    18    9   40 1
    19   10   11 ar
    20   10   13 1
    21   11   12 ar
    22   11   41 1
    23   12   42 1
    24   13   14 2
    25   13   15 1
    26   15   16 1
    27   15   43 1
    28   15   44 1
    29   16   17 1
    30   16   24 1
    31   16   45 1
    32   17   22 ar
    33   17   18 ar
    34   18   19 ar
    35   18   46 1
    36   19   20 ar
    37   19   47 1
    38   20   21 ar
    39   20   48 1
    40   21   22 ar
    41   21   23 1
    42   22   49 1
    43   24   25 1
    44   24   50 1
    45   25   30 ar
    46   25   26 ar
    47   26   27 ar
    48   26   51 1
    49   27   28 ar
    50   27   52 1
    51   28   29 ar
    52   28   31 1
    53   29   30 ar
    54   29   53 1
    55   30   54 1
    56   31   32 2
    57   31   33 1
@<TRIPOS>MOLECULE
CHEMBL1165642__1
   54    57     0     0     0
SMALL
USER_CHARGES

@<TRIPOS>ATOM
      1 C1         -0.0167    1.3792    0.0096 C.ar      1 <0>        -0.1105
      2 C2          1.1686    2.0925    0.0021 C.ar      1 <0>        -0.1184
      3 C3          2.3774    1.4271   -0.0129 C.ar      1 <0>        -0.1040
      4 C4          2.4026    0.0331   -0.0206 C.ar      1 <0>        -0.0620
      5 C5          1.2048   -0.6804   -0.0130 C.ar      1 <0>        -0.1041
      6 C6          0.0021   -0.0041    0.0020 C.ar      1 <0>        -0.1189
      7 C7          3.6979   -0.6876   -0.0373 C.ar      1 <0>        -0.0038
      8 C8          4.8947    0.0304   -0.0395 C.ar      1 <0>        -0.1255
      9 C9          6.0939   -0.6339   -0.0545 C.ar      1 <0>        -0.0526
     10 C10         6.1173   -2.0337   -0.0675 C.ar      1 <0>        -0.1765
     11 C11         4.9154   -2.7517   -0.0653 C.ar      1 <0>        -0.0680
     12 C12         3.7187   -2.0831   -0.0449 C.ar      1 <0>        -0.1261
     13 C13         7.4017   -2.7483   -0.0841 C.2       1 <0>         0.3946
     14 O1          8.4422   -2.1253   -0.0864 O.2       1 <0>        -0.4361
     15 C14         7.4255   -4.2551   -0.0981 C.3       1 <0>        -0.1732
     16 C15         8.8758   -4.7421   -0.1138 C.3       1 <0>         0.1988
     17 C16         8.9023   -6.2448   -0.0040 C.ar      1 <0>        -0.0817
     18 C17         8.6705   -7.0237   -1.1227 C.ar      1 <0>        -0.1103
     19 C18         8.6944   -8.4021   -1.0235 C.ar      1 <0>        -0.0871
     20 C19         8.9499   -9.0036    0.1945 C.ar      1 <0>        -0.1482
     21 C20         9.1822   -8.2248    1.3152 C.ar      1 <0>         0.1045
     22 C21         9.1640   -6.8438    1.2133 C.ar      1 <0>        -0.1443
     23 F1          9.4316   -8.8116    2.5063 F         1 <0>        -0.1358
     24 N1          9.5149   -4.3326   -1.3669 N.pl3     1 <0>        -0.7140
     25 C22        10.9019   -4.1787   -1.4258 C.ar      1 <0>         0.2782
     26 C23        11.6774   -4.4190   -0.2986 C.ar      1 <0>        -0.1927
     27 C24        13.0486   -4.2663   -0.3604 C.ar      1 <0>        -0.0041
     28 C25        13.6496   -3.8747   -1.5426 C.ar      1 <0>        -0.1113
     29 C26        12.8806   -3.6347   -2.6665 C.ar      1 <0>        -0.0047
     30 C27        11.5094   -3.7906   -2.6131 C.ar      1 <0>        -0.1939
     31 N2         15.1194   -3.7116   -1.6049 N.pl3     1 <0>         0.0452
     32 O2         15.7930   -3.9207   -0.6230 O.2       1 <0>        -0.1742
     33 O3         15.6463   -3.3693   -2.6378 O.3       1 <0>        -0.1743
     34 H1         -0.9603    1.9042    0.0260 H         1 <0>         0.1256
     35 H2          1.1478    3.1723    0.0077 H         1 <0>         0.1271
     36 H3          3.3021    1.9850   -0.0191 H         1 <0>         0.1270
     37 H4          1.2182   -1.7603   -0.0193 H         1 <0>         0.1270
     38 H5         -0.9264   -0.5557    0.0079 H         1 <0>         0.1270
     39 H6          4.8762    1.1102   -0.0298 H         1 <0>         0.1332
     40 H7          7.0197   -0.0779   -0.0565 H         1 <0>         0.1361
     41 H8          4.9310   -3.8316   -0.0757 H         1 <0>         0.1340
     42 H9          2.7914   -2.6366   -0.0387 H         1 <0>         0.1334
     43 H10         6.9244   -4.6347    0.7923 H         1 <0>         0.1215
     44 H11         6.9106   -4.6183   -0.9875 H         1 <0>         0.1110
     45 H12         9.4144   -4.3067    0.7279 H         1 <0>         0.1039
     46 H13         8.4701   -6.5546   -2.0747 H         1 <0>         0.1270
     47 H14         8.5132   -9.0095   -1.8980 H         1 <0>         0.1351
     48 H15         8.9679  -10.0806    0.2719 H         1 <0>         0.1376
     49 H16         9.3494   -6.2353    2.0861 H         1 <0>         0.1375
     50 H17         8.9748   -4.1685   -2.1557 H         1 <0>         0.4058
     51 H18        11.2085   -4.7245    0.6251 H         1 <0>         0.1407
     52 H19        13.6520   -4.4526    0.5157 H         1 <0>         0.1504
     53 H20        13.3532   -3.3286   -3.5882 H         1 <0>         0.1513
     54 H21        10.9098   -3.6069   -3.4924 H         1 <0>         0.1425
@<TRIPOS>BOND
     1    1    6 ar
     2    1    2 ar
     3    1   34 1
     4    2    3 ar
     5    2   35 1
     6    3    4 ar
     7    3   36 1
     8    4    5 ar
     9    4    7 1
    10    5    6 ar
    11    5   37 1
    12    6   38 1
    13    7   12 ar
    14    7    8 ar
    15    8    9 ar
    16    8   39 1
    17    9   10 ar
    18    9   40 1
    19   10   11 ar
    20   10   13 1
    21   11   12 ar
    22   11   41 1
    23   12   42 1
    24   13   14 2
    25   13   15 1
    26   15   16 1
    27   15   43 1
    28   15   44 1
    29   16   17 1
    30   16   24 1
    31   16   45 1
    32   17   22 ar
    33   17   18 ar
    34   18   19 ar
    35   18   46 1
    36   19   20 ar
    37   19   47 1
    38   20   21 ar
    39   20   48 1
    40   21   22 ar
    41   21   23 1
    42   22   49 1
    43   24   25 1
    44   24   50 1
    45   25   30 ar
    46   25   26 ar
    47   26   27 ar
    48   26   51 1
    49   27   28 ar
    50   27   52 1
    51   28   29 ar
    52   28   31 1
    53   29   30 ar
    54   29   53 1
    55   30   54 1
    56   31   32 2
    57   31   33 1
@<TRIPOS>MOLECULE
CHEMBL24922
   42    45     0     0     0
SMALL
USER_CHARGES

@<TRIPOS>ATOM
      1 C1         -0.0167    1.3769    0.0096 C.ar      1 <0>        -0.1120
      2 C2          1.1659    2.0892    0.0021 C.ar      1 <0>        -0.0660
      3 C3          2.3893    1.4155   -0.0136 C.ar      1 <0>        -0.0194
      4 C4          2.4130    0.0212   -0.0214 C.ar      1 <0>        -0.0623
      5 C5          1.2172   -0.6888   -0.0133 C.ar      1 <0>        -0.0459
      6 C6          0.0021   -0.0041    0.0020 C.ar      1 <0>        -0.0809
      7 C7          1.2339   -2.1723   -0.0219 C.ar      1 <0>        -0.0500
      8 C8          2.4488   -2.8559   -0.0323 C.ar      1 <0>        -0.0725
      9 C9          2.4651   -4.2353   -0.0404 C.ar      1 <0>        -0.1227
     10 C10         1.2703   -4.9402   -0.0385 C.ar      1 <0>         0.1307
     11 C11         0.0558   -4.2592   -0.0271 C.ar      1 <0>        -0.1417
     12 C12         0.0340   -2.8836   -0.0138 C.ar      1 <0>        -0.0608
     13 C13        -1.2237   -5.0561   -0.0216 C.3       1 <0>         0.1565
     14 C14        -1.6590   -5.3167    1.4211 C.3       1 <0>        -0.1327
     15 C15        -2.9558   -6.1290    1.4239 C.3       1 <0>        -0.1221
     16 C16        -4.0489   -5.3465    0.6931 C.3       1 <0>        -0.1204
     17 C17        -3.6130   -5.0884   -0.7506 C.3       1 <0>        -0.1225
     18 C18        -2.3162   -4.2764   -0.7543 C.3       1 <0>        -0.1037
     19 O1         -0.9969   -6.3022   -0.6852 O.3       1 <0>        -0.2692
     20 C19         0.1161   -6.9869   -0.3606 C.2       1 <0>         0.5009
     21 N1          1.2578   -6.3389   -0.0496 N.pl3     1 <0>        -0.6082
     22 S1          0.0819   -8.6985   -0.3417 S.2       1 <0>        -0.4912
     23 C20         3.6159    2.1545   -0.0223 C.1       1 <0>         0.2473
     24 N2          4.5889    2.7408   -0.0292 N.1       1 <0>        -0.4050
     25 H1         -0.9604    1.9018    0.0260 H         1 <0>         0.1399
     26 H2          1.1450    3.1690    0.0082 H         1 <0>         0.1368
     27 H3          3.3561   -0.5051   -0.0339 H         1 <0>         0.1368
     28 H4         -0.9267   -0.5553    0.0083 H         1 <0>         0.1339
     29 H5          3.3779   -2.3053   -0.0337 H         1 <0>         0.1411
     30 H6          3.4060   -4.7654   -0.0486 H         1 <0>         0.1424
     31 H7         -0.9086   -2.3565   -0.0014 H         1 <0>         0.1435
     32 H8         -0.8799   -5.8745    1.9406 H         1 <0>         0.0659
     33 H9         -1.8247   -4.3661    1.9280 H         1 <0>         0.0897
     34 H10        -2.7899   -7.0801    0.9181 H         1 <0>         0.0761
     35 H11        -3.2668   -6.3135    2.4522 H         1 <0>         0.0712
     36 H12        -4.9730   -5.9245    0.6958 H         1 <0>         0.0700
     37 H13        -4.2141   -4.3949    1.1984 H         1 <0>         0.0635
     38 H14        -3.4473   -6.0400   -1.2558 H         1 <0>         0.0754
     39 H15        -4.3919   -4.5314   -1.2713 H         1 <0>         0.0727
     40 H16        -2.4825   -3.3240   -0.2510 H         1 <0>         0.0918
     41 H17        -2.0047   -4.0941   -1.7829 H         1 <0>         0.0805
     42 H18         2.0618   -6.8378    0.1639 H         1 <0>         0.4427
@<TRIPOS>BOND
     1    1    6 ar
     2    1    2 ar
     3    1   25 1
     4    2    3 ar
     5    2   26 1
     6    3    4 ar
     7    3   23 1
     8    4    5 ar
     9    4   27 1
    10    5    6 ar
    11    5    7 1
    12    6   28 1
    13    7   12 ar
    14    7    8 ar
    15    8    9 ar
    16    8   29 1
    17    9   10 ar
    18    9   30 1
    19   10   21 1
    20   10   11 ar
    21   11   12 ar
    22   11   13 1
    23   12   31 1
    24   13   18 1
    25   13   14 1
    26   13   19 1
    27   14   15 1
    28   14   32 1
    29   14   33 1
    30   15   16 1
    31   15   34 1
    32   15   35 1
    33   16   17 1
    34   16   36 1
    35   16   37 1
    36   17   18 1
    37   17   38 1
    38   17   39 1
    39   18   40 1
    40   18   41 1
    41   19   20 1
    42   20   21 1
    43   20   22 2
    44   21   42 1
    45   23   24 3
@<TRIPOS>MOLECULE
CHEMBL486916
   42    45     0     0     0
SMALL
USER_CHARGES

@<TRIPOS>ATOM
      1 C1         -0.2402    1.6501   -0.2115 C.3       1 <0>        -0.1593
      2 C2         -0.0615    0.1348   -0.0982 C.3       1 <0>        -0.1605
      3 C3         -1.4333   -0.5336    0.0129 C.3       1 <0>         0.2588
      4 C4         -1.2266   -2.0016    0.2233 C.ar      1 <0>        -0.1361
      5 C5         -1.2014   -2.4286    1.5475 C.ar      1 <0>        -0.0709
      6 C6         -1.0198   -3.7662    1.8684 C.ar      1 <0>        -0.0457
      7 C7         -0.8601   -4.6964    0.8425 C.ar      1 <0>        -0.0688
      8 C8         -0.8832   -4.2747   -0.4624 C.ar      1 <0>        -0.1561
      9 C9         -1.0649   -2.9206   -0.7939 C.ar      1 <0>         0.1886
     10 N1         -1.0576   -2.6422   -2.1436 N.am      1 <0>        -0.6464
     11 C10        -1.3320   -1.5921   -2.8706 C.2       1 <0>         0.4964
     12 O1         -1.4252   -1.7650   -4.0675 O.2       1 <0>        -0.5275
     13 C11        -1.5422   -0.2030   -2.3743 C.3       1 <0>         0.0464
     14 O2         -2.1800   -0.1951   -1.1177 O.3       1 <0>        -0.3442
     15 C12        -0.9954   -4.2015    3.2872 C.2       1 <0>        -0.0969
     16 C13        -0.8094   -5.5338    3.6185 C.2       1 <0>        -0.0645
     17 C14        -0.8039   -5.8237    4.9705 C.2       1 <0>        -0.1581
     18 S1         -1.0588   -4.2197    5.7036 S.3       1 <0>         0.2860
     19 C15        -1.1511   -3.2914    4.3070 C.2       1 <0>        -0.2256
     20 C16        -0.6362   -7.0904    5.6169 C.1       1 <0>         0.2915
     21 N2         -0.5031   -8.0953    6.1297 N.1       1 <0>        -0.3928
     22 C17        -2.1323    0.0221    1.2268 C.2       1 <0>        -0.1414
     23 C18        -3.4568    0.2256    1.4307 C.2       1 <0>        -0.1223
     24 C19        -3.8761    0.7523    2.6379 C.2       1 <0>        -0.1542
     25 C20        -2.9503    1.0498    3.5823 C.2       1 <0>        -0.1688
     26 S2         -1.4314    0.5760    2.7725 S.3       1 <0>         0.0441
     27 H1          0.7371    2.1263   -0.2906 H         1 <0>         0.0648
     28 H2         -0.8298    1.8811   -1.0986 H         1 <0>         0.0625
     29 H3         -0.7552    2.0224    0.6741 H         1 <0>         0.0679
     30 H4          0.4535   -0.2376   -0.9838 H         1 <0>         0.0760
     31 H5          0.5281   -0.0962    0.7890 H         1 <0>         0.0850
     32 H6         -1.3258   -1.7056    2.3400 H         1 <0>         0.1382
     33 H7         -0.7187   -5.7419    1.0736 H         1 <0>         0.1360
     34 H8         -0.7593   -4.9995   -1.2534 H         1 <0>         0.1343
     35 H9         -0.7847   -3.4038   -2.6787 H         1 <0>         0.4018
     36 H10        -0.5762    0.2941   -2.2866 H         1 <0>         0.1013
     37 H11        -2.1582    0.3417   -3.0899 H         1 <0>         0.1460
     38 H12        -0.6773   -6.2985    2.8674 H         1 <0>         0.1534
     39 H13        -1.3004   -2.2248    4.2277 H         1 <0>         0.1939
     40 H14        -4.1738   -0.0198    0.6612 H         1 <0>         0.1394
     41 H15        -4.9256    0.9245    2.8258 H         1 <0>         0.1381
     42 H16        -3.0945    1.4625    4.5698 H         1 <0>         0.1897
@<TRIPOS>BOND
     1    1    2 1
     2    1   27 1
     3    1   28 1
     4    1   29 1
     5    2    3 1
     6    2   30 1
     7    2   31 1
     8    3   14 1
     9    3    4 1
    10    3   22 1
    11    4    9 ar
    12    4    5 ar
    13    5    6 ar
    14    5   32 1
    15    6    7 ar
    16    6   15 1
    17    7    8 ar
    18    7   33 1
    19    8    9 ar
    20    8   34 1
    21    9   10 1
    22   10   11 am
    23   10   35 1
    24   11   12 2
    25   11   13 1
    26   13   14 1
    27   13   36 1
    28   13   37 1
    29   15   19 2
    30   15   16 1
    31   16   17 2
    32   16   38 1
    33   17   18 1
    34   17   20 1
    35   18   19 1
    36   19   39 1
    37   20   21 3
    38   22   26 1
    39   22   23 2
    40   23   24 1
    41   23   40 1
    42   24   25 2
    43   24   41 1
    44   25   26 1
    45   25   42 1
@<TRIPOS>MOLECULE
CHEMBL486916__1
   42    45     0     0     0
SMALL
USER_CHARGES

@<TRIPOS>ATOM
      1 C1         -0.2598    1.6622    0.2212 C.3       1 <0>        -0.1597
      2 C2         -0.0675    0.1480    0.1165 C.3       1 <0>        -0.1608
      3 C3         -1.4333   -0.5336    0.0129 C.3       1 <0>         0.2587
      4 C4         -1.2136   -1.9954   -0.2258 C.ar      1 <0>        -0.1360
      5 C5         -1.2023   -2.3993   -1.5574 C.ar      1 <0>        -0.0710
      6 C6         -1.0098   -3.7290   -1.9039 C.ar      1 <0>        -0.0457
      7 C7         -0.8256   -4.6748   -0.8965 C.ar      1 <0>        -0.0688
      8 C8         -0.8359   -4.2760    0.4156 C.ar      1 <0>        -0.1561
      9 C9         -1.0285   -2.9299    0.7730 C.ar      1 <0>         0.1885
     10 N1         -1.0054   -2.6748    2.1271 N.am      1 <0>        -0.6464
     11 C10        -1.2804   -1.6402    2.8759 C.2       1 <0>         0.4964
     12 O1         -1.3544   -1.8344    4.0709 O.2       1 <0>        -0.5275
     13 C11        -1.5116   -0.2450    2.4067 C.3       1 <0>         0.0465
     14 O2         -2.1677   -0.2229    1.1593 O.3       1 <0>        -0.3443
     15 C12        -1.0006   -4.1395   -3.3303 C.2       1 <0>        -0.0969
     16 C13        -0.8145   -5.4653   -3.6867 C.2       1 <0>        -0.0645
     17 C14        -0.8248   -5.7319   -5.0435 C.2       1 <0>        -0.1581
     18 S1         -1.0939   -4.1164   -5.7456 S.3       1 <0>         0.2860
     19 C15        -1.1824   -3.2142   -4.3318 C.2       1 <0>        -0.2256
     20 C16        -0.6610   -6.9867   -5.7137 C.1       1 <0>         0.2915
     21 N2         -0.5311   -7.9821   -6.2453 N.1       1 <0>        -0.3928
     22 C17        -2.1553    0.0350   -1.1814 C.2       1 <0>        -0.1413
     23 C18        -3.4834    0.2406   -1.3578 C.2       1 <0>        -0.1223
     24 C19        -3.9255    0.7815   -2.5505 C.2       1 <0>        -0.1541
     25 C20        -3.0178    1.0906   -3.5085 C.2       1 <0>        -0.1690
     26 S2         -1.4825    0.6202   -2.7281 S.3       1 <0>         0.0442
     27 H1          0.7132    2.1478    0.2950 H         1 <0>         0.0647
     28 H2         -0.7804    2.0245   -0.6653 H         1 <0>         0.0683
     29 H3         -0.8493    1.8931    1.1085 H         1 <0>         0.0624
     30 H4          0.5220   -0.0829   -0.7708 H         1 <0>         0.0850
     31 H5          0.4531   -0.2143    1.0029 H         1 <0>         0.0763
     32 H6         -1.3458   -1.6642   -2.3354 H         1 <0>         0.1384
     33 H7         -0.6761   -5.7145   -1.1476 H         1 <0>         0.1359
     34 H8         -0.6930   -5.0128    1.1922 H         1 <0>         0.1343
     35 H9         -0.7181   -3.4428    2.6453 H         1 <0>         0.4019
     36 H10        -2.1231    0.2808    3.1400 H         1 <0>         0.1460
     37 H11        -0.5520    0.2635    2.3144 H         1 <0>         0.1013
     38 H12        -0.6699   -6.2423   -2.9507 H         1 <0>         0.1534
     39 H13        -1.3433   -2.1509   -4.2319 H         1 <0>         0.1940
     40 H14        -4.1858   -0.0149   -0.5782 H         1 <0>         0.1395
     41 H15        -4.9784    0.9551   -2.7167 H         1 <0>         0.1382
     42 H16        -3.1806    1.5150   -4.4882 H         1 <0>         0.1897
@<TRIPOS>BOND
     1    1    2 1
     2    1   27 1
     3    1   28 1
     4    1   29 1
     5    2    3 1
     6    2   30 1
     7    2   31 1
     8    3   14 1
     9    3    4 1
    10    3   22 1
    11    4    9 ar
    12    4    5 ar
    13    5    6 ar
    14    5   32 1
    15    6    7 ar
    16    6   15 1
    17    7    8 ar
    18    7   33 1
    19    8    9 ar
    20    8   34 1
    21    9   10 1
    22   10   11 am
    23   10   35 1
    24   11   12 2
    25   11   13 1
    26   13   14 1
    27   13   36 1
    28   13   37 1
    29   15   19 2
    30   15   16 1
    31   16   17 2
    32   16   38 1
    33   17   18 1
    34   17   20 1
    35   18   19 1
    36   19   39 1
    37   20   21 3
    38   22   26 1
    39   22   23 2
    40   23   24 1
    41   23   40 1
    42   24   25 2
    43   24   41 1
    44   25   26 1
    45   25   42 1
@<TRIPOS>MOLECULE
CHEMBL197161
   59    62     0     0     0
SMALL
USER_CHARGES

@<TRIPOS>ATOM
      1 C1          0.0760    1.3282    0.8380 C.3       1 <0>        -0.1416
      2 C2          0.0260   -0.0813    0.2449 C.3       1 <0>        -0.0177
      3 C3          0.8972   -1.0187    1.0834 C.3       1 <0>        -0.1623
      4 C4         -1.4183   -0.5860    0.2506 C.3       1 <0>        -0.1322
      5 C5         -2.1366   -0.0627    1.4960 C.3       1 <0>         0.1401
      6 C6         -1.3421   -0.4519    2.7443 C.3       1 <0>        -0.0825
      7 C7         -2.1411   -0.1095    3.9753 C.ar      1 <0>        -0.0965
      8 C8         -2.0124    1.1374    4.5581 C.ar      1 <0>        -0.0979
      9 C9         -2.7453    1.4515    5.6873 C.ar      1 <0>        -0.1211
     10 C10        -3.6072    0.5188    6.2335 C.ar      1 <0>        -0.1170
     11 C11        -3.7365   -0.7277    5.6501 C.ar      1 <0>        -0.1161
     12 C12        -3.0068   -1.0403    4.5185 C.ar      1 <0>        -0.1112
     13 C13        -3.5161   -0.6647    1.5706 C.2       1 <0>         0.4952
     14 O1         -3.7442   -1.7266    1.0311 O.2       1 <0>        -0.5044
     15 N1         -4.4963   -0.0229    2.2368 N.am      1 <0>        -0.6581
     16 C14        -5.7409   -0.6295    2.4001 C.ar      1 <0>         0.1986
     17 C15        -5.8265   -2.0105    2.5499 C.ar      1 <0>        -0.1306
     18 C16        -7.0525   -2.6157    2.7116 C.ar      1 <0>        -0.0090
     19 C17        -8.2146   -1.8399    2.7252 C.ar      1 <0>        -0.2156
     20 C18        -8.1209   -0.4514    2.5739 C.ar      1 <0>        -0.0790
     21 C19        -6.8963    0.1479    2.4188 C.ar      1 <0>        -0.1293
     22 C20        -9.5331    0.0734    2.6345 C.3       1 <0>         0.0915
     23 O2        -10.3851   -1.0600    2.8211 O.3       1 <0>        -0.3150
     24 C21        -9.6395   -2.1765    2.8759 C.2       1 <0>         0.5231
     25 O3        -10.0775   -3.2996    3.0281 O.2       1 <0>        -0.4495
     26 O4         -2.2413    1.3606    1.4227 O.3       1 <0>        -0.5369
     27 C22         0.5412   -0.0491   -1.1710 C.ar      1 <0>        -0.0674
     28 C23        -0.2783   -0.4388   -2.2138 C.ar      1 <0>        -0.1275
     29 C24         0.1944   -0.4092   -3.5125 C.ar      1 <0>        -0.1168
     30 C25         1.4863    0.0105   -3.7684 C.ar      1 <0>        -0.1254
     31 C26         2.3056    0.4010   -2.7257 C.ar      1 <0>        -0.1172
     32 C27         1.8315    0.3756   -1.4274 C.ar      1 <0>        -0.1144
     33 H1          1.0744    1.7441    0.7026 H         1 <0>         0.0455
     34 H2         -0.6530    1.9613    0.3322 H         1 <0>         0.0682
     35 H3         -0.1578    1.2833    1.9017 H         1 <0>         0.0768
     36 H4          0.4905   -1.0871    2.0924 H         1 <0>         0.0746
     37 H5          0.9079   -2.0090    0.6281 H         1 <0>         0.0582
     38 H6          1.9137   -0.6278    1.1271 H         1 <0>         0.0600
     39 H7         -1.9317   -0.2285   -0.6420 H         1 <0>         0.0820
     40 H8         -1.4223   -1.6760    0.2600 H         1 <0>         0.0916
     41 H9         -1.1413   -1.5231    2.7278 H         1 <0>         0.0956
     42 H10        -0.3990    0.0943    2.7597 H         1 <0>         0.1184
     43 H11        -1.3391    1.8660    4.1314 H         1 <0>         0.1256
     44 H12        -2.6443    2.4254    6.1430 H         1 <0>         0.1220
     45 H13        -4.1793    0.7640    7.1161 H         1 <0>         0.1203
     46 H14        -4.4096   -1.4565    6.0770 H         1 <0>         0.1194
     47 H15        -3.1106   -2.0129    4.0606 H         1 <0>         0.1144
     48 H16        -4.3358    0.8610    2.6027 H         1 <0>         0.4204
     49 H17        -4.9280   -2.6097    2.5390 H         1 <0>         0.1463
     50 H18        -7.1159   -3.6876    2.8273 H         1 <0>         0.1409
     51 H19        -6.8288    1.2200    2.3073 H         1 <0>         0.1387
     52 H20        -9.6395    0.7620    3.4727 H         1 <0>         0.1182
     53 H21        -9.7835    0.5788    1.7018 H         1 <0>         0.1178
     54 H22        -2.7338    1.6797    0.6541 H         1 <0>         0.3806
     55 H23        -1.2877   -0.7667   -2.0138 H         1 <0>         0.1260
     56 H24        -0.4457   -0.7144   -4.3271 H         1 <0>         0.1204
     57 H25         1.8558    0.0329   -4.7830 H         1 <0>         0.1201
     58 H26         3.3151    0.7286   -2.9257 H         1 <0>         0.1210
     59 H27         2.4703    0.6843   -0.6131 H         1 <0>         0.1207
@<TRIPOS>BOND
     1    1    2 1
     2    1   33 1
     3    1   34 1
     4    1   35 1
     5    2    3 1
     6    2    4 1
     7    2   27 1
     8    3   36 1
     9    3   37 1
    10    3   38 1
    11    4    5 1
    12    4   39 1
    13    4   40 1
    14    5    6 1
    15    5   13 1
    16    5   26 1
    17    6    7 1
    18    6   41 1
    19    6   42 1
    20    7   12 ar
    21    7    8 ar
    22    8    9 ar
    23    8   43 1
    24    9   10 ar
    25    9   44 1
    26   10   11 ar
    27   10   45 1
    28   11   12 ar
    29   11   46 1
    30   12   47 1
    31   13   14 2
    32   13   15 am
    33   15   16 1
    34   15   48 1
    35   16   21 ar
    36   16   17 ar
    37   17   18 ar
    38   17   49 1
    39   18   19 ar
    40   18   50 1
    41   19   24 1
    42   19   20 ar
    43   20   21 ar
    44   20   22 1
    45   21   51 1
    46   22   23 1
    47   22   52 1
    48   22   53 1
    49   23   24 1
    50   24   25 2
    51   26   54 1
    52   27   32 ar
    53   27   28 ar
    54   28   29 ar
    55   28   55 1
    56   29   30 ar
    57   29   56 1
    58   30   31 ar
    59   30   57 1
    60   31   32 ar
    61   31   58 1
    62   32   59 1
@<TRIPOS>MOLECULE
CHEMBL197161__1
   59    62     0     0     0
SMALL
USER_CHARGES

@<TRIPOS>ATOM
      1 C1         -0.1299   -0.0009    2.4749 C.3       1 <0>        -0.1417
      2 C2         -0.6310   -1.2128    1.6869 C.3       1 <0>        -0.0278
      3 C3         -1.9694   -1.6785    2.2639 C.3       1 <0>        -0.1623
      4 C4         -0.8159   -0.8253    0.2184 C.3       1 <0>        -0.1335
      5 C5         -1.9433    0.2021    0.1000 C.3       1 <0>         0.1393
      6 C6         -1.8826    0.8698   -1.2752 C.3       1 <0>        -0.0615
      7 C7         -0.5625    1.5798   -1.4312 C.ar      1 <0>        -0.0781
      8 C8         -0.3995    2.8552   -0.9237 C.ar      1 <0>        -0.0917
      9 C9          0.8115    3.5065   -1.0667 C.ar      1 <0>        -0.1213
     10 C10         1.8595    2.8821   -1.7168 C.ar      1 <0>        -0.1192
     11 C11         1.6968    1.6063   -2.2235 C.ar      1 <0>        -0.1207
     12 C12         0.4872    0.9534   -2.0767 C.ar      1 <0>        -0.1170
     13 C13        -3.2723   -0.4891    0.2646 C.2       1 <0>         0.5023
     14 O1         -3.6712   -1.2482   -0.5929 O.2       1 <0>        -0.4986
     15 N1         -4.0174   -0.2638    1.3648 N.am      1 <0>        -0.6742
     16 C14        -5.1894   -0.9893    1.5736 C.ar      1 <0>         0.1885
     17 C15        -5.9875   -1.3468    0.4909 C.ar      1 <0>        -0.1289
     18 C16        -7.1461   -2.0632    0.6903 C.ar      1 <0>        -0.0101
     19 C17        -7.5214   -2.4325    1.9846 C.ar      1 <0>        -0.2113
     20 C18        -6.7138   -2.0695    3.0689 C.ar      1 <0>        -0.0813
     21 C19        -5.5570   -1.3603    2.8647 C.ar      1 <0>        -0.1256
     22 C20        -7.3935   -2.6150    4.2992 C.3       1 <0>         0.0915
     23 O2         -8.5803   -3.2770    3.8538 O.3       1 <0>        -0.3143
     24 C21        -8.6712   -3.1817    2.5167 C.2       1 <0>         0.5227
     25 O3         -9.5707   -3.6464    1.8449 O.2       1 <0>        -0.4478
     26 O4         -1.7929    1.1937    1.1180 O.3       1 <0>        -0.5424
     27 C22         0.3758   -2.3296    1.7889 C.ar      1 <0>        -0.0676
     28 C23         0.9710   -2.8300    0.6460 C.ar      1 <0>        -0.1208
     29 C24         1.8945   -3.8544    0.7395 C.ar      1 <0>        -0.1157
     30 C25         2.2230   -4.3780    1.9760 C.ar      1 <0>        -0.1233
     31 C26         1.6284   -3.8770    3.1189 C.ar      1 <0>        -0.1170
     32 C27         0.7082   -2.8497    3.0258 C.ar      1 <0>        -0.1163
     33 H1          0.5922   -0.3274    3.2234 H         1 <0>         0.0586
     34 H2          0.3466    0.7039    1.7935 H         1 <0>         0.0767
     35 H3         -0.9715    0.4843    2.9694 H         1 <0>         0.0564
     36 H4         -2.5572   -0.8110    2.5640 H         1 <0>         0.0584
     37 H5         -2.5146   -2.2427    1.5072 H         1 <0>         0.0623
     38 H6         -1.7898   -2.3134    3.1314 H         1 <0>         0.0690
     39 H7          0.1099   -0.3945   -0.1630 H         1 <0>         0.0999
     40 H8         -1.0701   -1.7122   -0.3622 H         1 <0>         0.0856
     41 H9         -1.9813    0.1115   -2.0520 H         1 <0>         0.0992
     42 H10        -2.6955    1.5903   -1.3656 H         1 <0>         0.0850
     43 H11        -1.2183    3.3430   -0.4158 H         1 <0>         0.1236
     44 H12         0.9386    4.5032   -0.6708 H         1 <0>         0.1206
     45 H13         2.8054    3.3911   -1.8291 H         1 <0>         0.1199
     46 H14         2.5155    1.1186   -2.7317 H         1 <0>         0.1209
     47 H15         0.3612   -0.0448   -2.4693 H         1 <0>         0.1203
     48 H16        -3.7382    0.4032    2.0114 H         1 <0>         0.4134
     49 H17        -5.6972   -1.0608   -0.5092 H         1 <0>         0.1537
     50 H18        -7.7636   -2.3389   -0.1518 H         1 <0>         0.1424
     51 H19        -4.9348   -1.0868    3.7040 H         1 <0>         0.1400
     52 H20        -6.7377   -3.3244    4.8041 H         1 <0>         0.1182
     53 H21        -7.6522   -1.7997    4.9748 H         1 <0>         0.1188
     54 H22        -2.0272    0.8862    2.0043 H         1 <0>         0.3728
     55 H23         0.7144   -2.4209   -0.3200 H         1 <0>         0.1243
     56 H24         2.3591   -4.2458   -0.1534 H         1 <0>         0.1219
     57 H25         2.9440   -5.1788    2.0490 H         1 <0>         0.1212
     58 H26         1.8849   -4.2863    4.0849 H         1 <0>         0.1217
     59 H27         0.2464   -2.4557    3.9190 H         1 <0>         0.1207
@<TRIPOS>BOND
     1    1    2 1
     2    1   33 1
     3    1   34 1
     4    1   35 1
     5    2    3 1
     6    2    4 1
     7    2   27 1
     8    3   36 1
     9    3   37 1
    10    3   38 1
    11    4    5 1
    12    4   39 1
    13    4   40 1
    14    5    6 1
    15    5   13 1
    16    5   26 1
    17    6    7 1
    18    6   41 1
    19    6   42 1
    20    7   12 ar
    21    7    8 ar
    22    8    9 ar
    23    8   43 1
    24    9   10 ar
    25    9   44 1
    26   10   11 ar
    27   10   45 1
    28   11   12 ar
    29   11   46 1
    30   12   47 1
    31   13   14 2
    32   13   15 am
    33   15   16 1
    34   15   48 1
    35   16   21 ar
    36   16   17 ar
    37   17   18 ar
    38   17   49 1
    39   18   19 ar
    40   18   50 1
    41   19   24 1
    42   19   20 ar
    43   20   21 ar
    44   20   22 1
    45   21   51 1
    46   22   23 1
    47   22   52 1
    48   22   53 1
    49   23   24 1
    50   24   25 2
    51   26   54 1
    52   27   32 ar
    53   27   28 ar
    54   28   29 ar
    55   28   55 1
    56   29   30 ar
    57   29   56 1
    58   30   31 ar
    59   30   57 1
    60   31   32 ar
    61   31   58 1
    62   32   59 1
@<TRIPOS>MOLECULE
CHEMBL71527
   32    34     0     0     0
SMALL
USER_CHARGES

@<TRIPOS>ATOM
      1 C1         -0.0187    1.5258    0.0104 C.3       1 <0>        -0.1449
      2 C2          0.0021   -0.0041    0.0020 C.3       1 <0>         0.1663
      3 C3         -1.4115   -0.5288    0.0288 C.ar      1 <0>        -0.1567
      4 C4         -2.4377    0.1745   -0.5569 C.ar      1 <0>        -0.0499
      5 C5         -3.7383   -0.3362   -0.5181 C.ar      1 <0>        -0.0369
      6 C6         -3.9890   -1.5563    0.1144 C.ar      1 <0>        -0.0476
      7 C7         -2.9548   -2.2547    0.7005 C.ar      1 <0>        -0.1423
      8 C8         -1.6650   -1.7441    0.6601 C.ar      1 <0>         0.1778
      9 N1         -0.5989   -2.4312    1.2506 N.am      1 <0>        -0.6676
     10 C9          0.5629   -1.7823    1.4719 C.2       1 <0>         0.6620
     11 O1          1.5019   -2.3806    1.9584 O.2       1 <0>        -0.4971
     12 O2          0.6935   -0.4804    1.1602 O.3       1 <0>        -0.3297
     13 C10        -4.8460    0.4134   -1.1445 C.2       1 <0>        -0.0825
     14 C11        -6.1903    0.0863   -1.2095 C.2       1 <0>        -0.1605
     15 C12        -7.0452    0.9412   -1.8483 C.2       1 <0>        -0.0705
     16 C13        -6.5313    2.1030   -2.4061 C.2       1 <0>        -0.1314
     17 S1         -4.7964    1.9768   -2.0048 S.3       1 <0>         0.1597
     18 C14        -7.2175    3.1402   -3.1161 C.1       1 <0>         0.2896
     19 N2         -7.7618    3.9630   -3.6794 N.1       1 <0>        -0.3904
     20 C15         0.7121   -0.5002   -1.2592 C.3       1 <0>        -0.1728
     21 H1          1.0039    1.9031    0.0027 H         1 <0>         0.0808
     22 H2         -0.5459    1.8868   -0.8726 H         1 <0>         0.0871
     23 H3         -0.5289    1.8773    0.9072 H         1 <0>         0.0751
     24 H4         -2.2396    1.1172   -1.0452 H         1 <0>         0.1388
     25 H5         -4.9933   -1.9525    0.1445 H         1 <0>         0.1415
     26 H6         -3.1479   -3.1979    1.1897 H         1 <0>         0.1431
     27 H7         -0.6942   -3.3641    1.4984 H         1 <0>         0.4322
     28 H8         -6.5564   -0.8271   -0.7644 H         1 <0>         0.1490
     29 H9         -8.0993    0.7164   -1.9176 H         1 <0>         0.1494
     30 H10         1.7350   -0.1238   -1.2722 H         1 <0>         0.0812
     31 H11         0.7259   -1.5901   -1.2634 H         1 <0>         0.0617
     32 H12         0.1813   -0.1401   -2.1405 H         1 <0>         0.0853
@<TRIPOS>BOND
     1    1    2 1
     2    1   21 1
     3    1   22 1
     4    1   23 1
     5    2   12 1
     6    2    3 1
     7    2   20 1
     8    3    8 ar
     9    3    4 ar
    10    4    5 ar
    11    4   24 1
    12    5    6 ar
    13    5   13 1
    14    6    7 ar
    15    6   25 1
    16    7    8 ar
    17    7   26 1
    18    8    9 1
    19    9   10 am
    20    9   27 1
    21   10   11 2
    22   10   12 1
    23   13   17 1
    24   13   14 2
    25   14   15 1
    26   14   28 1
    27   15   16 2
    28   15   29 1
    29   16   17 1
    30   16   18 1
    31   18   19 3
    32   20   30 1
    33   20   31 1
    34   20   32 1
@<TRIPOS>MOLECULE
CHEMBL308938
   41    44     0     0     0
SMALL
USER_CHARGES

@<TRIPOS>ATOM
      1 C1         -0.0167    1.3769    0.0096 C.ar      1 <0>        -0.1124
      2 C2          1.1659    2.0893    0.0021 C.ar      1 <0>        -0.0712
      3 C3          2.3893    1.4155   -0.0136 C.ar      1 <0>        -0.0210
      4 C4          2.4130    0.0212   -0.0214 C.ar      1 <0>        -0.0662
      5 C5          1.2171   -0.6888   -0.0133 C.ar      1 <0>        -0.0357
      6 C6          0.0021   -0.0041    0.0020 C.ar      1 <0>        -0.0841
      7 C7          1.2338   -2.1723   -0.0219 C.ar      1 <0>        -0.0695
      8 C8          2.4464   -2.8602   -0.0324 C.ar      1 <0>        -0.0709
      9 C9          2.4625   -4.2368   -0.0410 C.ar      1 <0>        -0.1344
     10 C10         1.2668   -4.9551   -0.0389 C.ar      1 <0>         0.1511
     11 C11         0.0604   -4.2621   -0.0277 C.ar      1 <0>        -0.1289
     12 C12         0.0366   -2.8878   -0.0139 C.ar      1 <0>        -0.0475
     13 C13        -1.0251   -5.3093   -0.0277 C.3       1 <0>        -0.0457
     14 C14        -1.8921   -5.1775   -1.2759 C.3       1 <0>        -0.0914
     15 C15        -2.9671   -6.2672   -1.2714 C.3       1 <0>        -0.1314
     16 C16        -3.8294   -6.1257   -0.0155 C.3       1 <0>        -0.1149
     17 C17        -2.9514   -6.2830    1.2277 C.3       1 <0>        -0.1313
     18 C18        -1.8766   -5.1933    1.2327 C.3       1 <0>        -0.0914
     19 C19        -0.2805   -6.6229   -0.0406 C.2       1 <0>         0.5373
     20 O1         -0.7728   -7.7313   -0.0453 O.2       1 <0>        -0.4843
     21 N1          1.0322   -6.3304   -0.0462 N.am      1 <0>        -0.6623
     22 C20         3.6159    2.1545   -0.0223 C.1       1 <0>         0.2496
     23 N2          4.5889    2.7407   -0.0292 N.1       1 <0>        -0.4094
     24 H1         -0.9604    1.9018    0.0260 H         1 <0>         0.1378
     25 H2          1.1450    3.1690    0.0082 H         1 <0>         0.1347
     26 H3          3.3560   -0.5051   -0.0339 H         1 <0>         0.1359
     27 H4         -0.9267   -0.5553    0.0083 H         1 <0>         0.1342
     28 H5          3.3764   -2.3113   -0.0341 H         1 <0>         0.1357
     29 H6          3.4055   -4.7631   -0.0498 H         1 <0>         0.1313
     30 H7         -0.9073   -2.3631   -0.0014 H         1 <0>         0.1336
     31 H8         -2.3689   -4.1973   -1.2848 H         1 <0>         0.0793
     32 H9         -1.2692   -5.2858   -2.1638 H         1 <0>         0.0664
     33 H10        -3.5943   -6.1627   -2.1567 H         1 <0>         0.0667
     34 H11        -2.4908   -7.2476   -1.2768 H         1 <0>         0.0794
     35 H12        -4.2991   -5.1422   -0.0063 H         1 <0>         0.0608
     36 H13        -4.6003   -6.8963   -0.0156 H         1 <0>         0.0641
     37 H14        -3.5676   -6.1900    2.1220 H         1 <0>         0.0667
     38 H15        -2.4751   -7.2634    1.2147 H         1 <0>         0.0794
     39 H16        -1.2426   -5.3127    2.1113 H         1 <0>         0.0664
     40 H17        -2.3532   -4.2134    1.2599 H         1 <0>         0.0793
     41 H18         1.7351   -6.9989   -0.0548 H         1 <0>         0.4142
@<TRIPOS>BOND
     1    1    6 ar
     2    1    2 ar
     3    1   24 1
     4    2    3 ar
     5    2   25 1
     6    3    4 ar
     7    3   22 1
     8    4    5 ar
     9    4   26 1
    10    5    6 ar
    11    5    7 1
    12    6   27 1
    13    7   12 ar
    14    7    8 ar
    15    8    9 ar
    16    8   28 1
    17    9   10 ar
    18    9   29 1
    19   10   21 1
    20   10   11 ar
    21   11   12 ar
    22   11   13 1
    23   12   30 1
    24   13   18 1
    25   13   14 1
    26   13   19 1
    27   14   15 1
    28   14   31 1
    29   14   32 1
    30   15   16 1
    31   15   33 1
    32   15   34 1
    33   16   17 1
    34   16   35 1
    35   16   36 1
    36   17   18 1
    37   17   37 1
    38   17   38 1
    39   18   39 1
    40   18   40 1
    41   19   20 2
    42   19   21 am
    43   21   41 1
    44   22   23 3
@<TRIPOS>MOLECULE
CHEMBL117461
   38    41     0     0     0
SMALL
USER_CHARGES

@<TRIPOS>ATOM
      1 C1         -0.0168    1.3895    0.0097 C.ar      1 <0>        -0.0652
      2 C2          1.1636    2.0987    0.0022 C.ar      1 <0>        -0.1349
      3 C3          2.3869    1.4303   -0.0134 C.ar      1 <0>         0.1555
      4 C4          2.3988    0.0375   -0.0208 C.ar      1 <0>        -0.1235
      5 C5          1.2244   -0.6762   -0.0139 C.ar      1 <0>        -0.0437
      6 C6          0.0021   -0.0041    0.0020 C.ar      1 <0>        -0.0756
      7 C7         -1.2698   -0.7679    0.0096 C.ar      1 <0>        -0.0020
      8 C8         -2.4869   -0.0939    0.0188 C.ar      1 <0>        -0.0778
      9 C9         -3.6787   -0.8172    0.0259 C.ar      1 <0>         0.0135
     10 C10        -3.6444   -2.2136    0.0240 C.ar      1 <0>        -0.1110
     11 C11        -2.4314   -2.8767    0.0154 C.ar      1 <0>         0.1125
     12 C12        -1.2467   -2.1618    0.0019 C.ar      1 <0>        -0.1227
     13 F1         -2.4026   -4.2274    0.0144 F         1 <0>        -0.1283
     14 C13        -4.9351   -0.1302    0.0358 C.1       1 <0>         0.2482
     15 N1         -5.9318    0.4149    0.0436 N.1       1 <0>        -0.3961
     16 C14         3.8488   -0.3632   -0.0359 C.3       1 <0>        -0.0562
     17 C15         4.2014   -1.2062    1.1978 C.3       1 <0>        -0.1007
     18 C16         4.1549   -2.6670    0.6798 C.3       1 <0>        -0.1217
     19 C17         4.7386   -2.5441   -0.7504 C.3       1 <0>        -0.1241
     20 C18         4.1817   -1.2015   -1.2733 C.3       1 <0>        -0.0992
     21 C19         4.6089    0.9369   -0.0368 C.2       1 <0>         0.5389
     22 O1          5.8145    1.0697   -0.0479 O.2       1 <0>        -0.4882
     23 N2          3.6928    1.9231   -0.0234 N.am      1 <0>        -0.6624
     24 H1         -0.9603    1.9149    0.0260 H         1 <0>         0.1380
     25 H2          1.1416    3.1785    0.0082 H         1 <0>         0.1331
     26 H3          1.2478   -1.7560   -0.0199 H         1 <0>         0.1346
     27 H4         -2.5083    0.9859    0.0206 H         1 <0>         0.1443
     28 H5         -4.5665   -2.7759    0.0295 H         1 <0>         0.1484
     29 H6         -0.3019   -2.6849   -0.0096 H         1 <0>         0.1474
     30 H7          5.2007   -0.9595    1.5562 H         1 <0>         0.0805
     31 H8          3.4638   -1.0567    1.9863 H         1 <0>         0.0777
     32 H9          4.7776   -3.3152    1.2964 H         1 <0>         0.0755
     33 H10         3.1285   -3.0327    0.6477 H         1 <0>         0.0711
     34 H11         5.8277   -2.5181   -0.7170 H         1 <0>         0.0724
     35 H12         4.3948   -3.3687   -1.3749 H         1 <0>         0.0737
     36 H13         3.2808   -1.3737   -1.8623 H         1 <0>         0.0796
     37 H14         4.9335   -0.6943   -1.8779 H         1 <0>         0.0736
     38 H15         3.9146    2.8674   -0.0206 H         1 <0>         0.4151
@<TRIPOS>BOND
     1    1    6 ar
     2    1    2 ar
     3    1   24 1
     4    2    3 ar
     5    2   25 1
     6    3   23 1
     7    3    4 ar
     8    4    5 ar
     9    4   16 1
    10    5    6 ar
    11    5   26 1
    12    6    7 1
    13    7   12 ar
    14    7    8 ar
    15    8    9 ar
    16    8   27 1
    17    9   10 ar
    18    9   14 1
    19   10   11 ar
    20   10   28 1
    21   11   12 ar
    22   11   13 1
    23   12   29 1
    24   14   15 3
    25   16   20 1
    26   16   17 1
    27   16   21 1
    28   17   18 1
    29   17   30 1
    30   17   31 1
    31   18   19 1
    32   18   32 1
    33   18   33 1
    34   19   20 1
    35   19   34 1
    36   19   35 1
    37   20   36 1
    38   20   37 1
    39   21   22 2
    40   21   23 am
    41   23   38 1
@<TRIPOS>MOLECULE
CHEMBL592510
   46    48     0     0     0
SMALL
USER_CHARGES

@<TRIPOS>ATOM
      1 C1          1.8203    0.3389    1.2139 C.3       1 <0>         0.0536
      2 O1          1.4393   -1.0173    0.9737 O.3       1 <0>        -0.3631
      3 C2          0.1208   -1.2759    0.8889 C.2       1 <0>         0.6635
      4 O2         -0.6845   -0.3748    1.0154 O.2       1 <0>        -0.5668
      5 N1         -0.3060   -2.5344    0.6637 N.am      1 <0>        -0.6019
      6 C3          0.5551   -3.7145    0.4985 C.3       1 <0>         0.1059
      7 C4         -0.3705   -4.9317    0.2906 C.3       1 <0>        -0.1480
      8 C5         -1.7106   -4.4596    0.9142 C.3       1 <0>         0.1623
      9 H1         -1.7074   -4.5952    1.9957 H         1 <0>         0.1072
     10 C6         -1.7138   -2.9566    0.5486 C.3       1 <0>         0.1022
     11 N2         -2.8471   -5.1541    0.3041 N.pl3     1 <0>        -0.6511
     12 C7         -3.8134   -5.8602    1.1490 C.3       1 <0>         0.1782
     13 C8         -4.9476   -4.9317    1.4989 C.ar      1 <0>        -0.1047
     14 C9         -4.9432   -4.2596    2.7069 C.ar      1 <0>        -0.0938
     15 C10        -5.9834   -3.4079    3.0279 C.ar      1 <0>        -0.1151
     16 C11        -7.0288   -3.2276    2.1412 C.ar      1 <0>        -0.1031
     17 C12        -7.0343   -3.8989    0.9333 C.ar      1 <0>        -0.1120
     18 C13        -5.9904   -4.7473    0.6089 C.ar      1 <0>        -0.0217
     19 Cl1        -5.9933   -5.5859   -0.9111 Cl        1 <0>        -0.0616
     20 C14        -3.0089   -5.1430   -1.0783 C.ar      1 <0>         0.2218
     21 C15        -3.4785   -3.9964   -1.7133 C.ar      1 <0>        -0.1232
     22 C16        -3.6399   -3.9810   -3.0798 C.ar      1 <0>        -0.0471
     23 C17        -3.3317   -5.1190   -3.8317 C.ar      1 <0>        -0.0264
     24 C18        -2.8600   -6.2700   -3.1910 C.ar      1 <0>         0.0149
     25 C19        -2.6956   -6.2757   -1.8225 C.ar      1 <0>        -0.1214
     26 Cl2        -2.4761   -7.6862   -4.1187 Cl        1 <0>        -0.0480
     27 C20        -3.4990   -5.1067   -5.2539 C.1       1 <0>         0.2464
     28 N3         -3.6316   -5.0969   -6.3821 N.1       1 <0>        -0.3958
     29 H2          2.9071    0.4083    1.2596 H         1 <0>         0.1049
     30 H3          1.4496    0.9691    0.4055 H         1 <0>         0.0614
     31 H4          1.3947    0.6737    2.1599 H         1 <0>         0.0614
     32 H5          1.1985   -3.5851   -0.3718 H         1 <0>         0.0745
     33 H6          1.1619   -3.8587    1.3924 H         1 <0>         0.0753
     34 H7         -0.4935   -5.1457   -0.7711 H         1 <0>         0.0851
     35 H8          0.0146   -5.8038    0.8189 H         1 <0>         0.0924
     36 H9         -2.3359   -2.3971    1.2472 H         1 <0>         0.0852
     37 H10        -2.0692   -2.8176   -0.4724 H         1 <0>         0.0808
     38 H11        -4.2038   -6.7239    0.6107 H         1 <0>         0.0874
     39 H12        -3.3216   -6.1936    2.0629 H         1 <0>         0.0891
     40 H13        -4.1271   -4.4003    3.4001 H         1 <0>         0.1296
     41 H14        -5.9798   -2.8833    3.9720 H         1 <0>         0.1285
     42 H15        -7.8415   -2.5622    2.3928 H         1 <0>         0.1310
     43 H16        -7.8511   -3.7582    0.2409 H         1 <0>         0.1323
     44 H17        -3.7168   -3.1177   -1.1324 H         1 <0>         0.1402
     45 H18        -4.0046   -3.0910   -3.5710 H         1 <0>         0.1434
     46 H19        -2.3274   -7.1619   -1.3270 H         1 <0>         0.1464
@<TRIPOS>BOND
     1    1    2 1
     2    1   29 1
     3    1   30 1
     4    1   31 1
     5    2    3 1
     6    3    4 2
     7    3    5 am
     8    5   10 1
     9    5    6 1
    10    6    7 1
    11    6   32 1
    12    6   33 1
    13    7    8 1
    14    7   34 1
    15    7   35 1
    16    8    9 1
    17    8   10 1
    18    8   11 1
    19   10   36 1
    20   10   37 1
    21   11   12 1
    22   11   20 1
    23   12   13 1
    24   12   38 1
    25   12   39 1
    26   13   18 ar
    27   13   14 ar
    28   14   15 ar
    29   14   40 1
    30   15   16 ar
    31   15   41 1
    32   16   17 ar
    33   16   42 1
    34   17   18 ar
    35   17   43 1
    36   18   19 1
    37   20   25 ar
    38   20   21 ar
    39   21   22 ar
    40   21   44 1
    41   22   23 ar
    42   22   45 1
    43   23   24 ar
    44   23   27 1
    45   24   25 ar
    46   24   26 1
    47   25   46 1
    48   27   28 3
@<TRIPOS>MOLECULE
CHEMBL1393
   61    65     0     0     0
SMALL
USER_CHARGES

@<TRIPOS>ATOM
      1 C1         -0.0184    1.5028    0.0103 C.3       1 <0>        -0.1834
      2 C2          0.0021   -0.0041    0.0020 C.2       1 <0>         0.2952
      3 O1          1.0609   -0.5963   -0.0113 O.2       1 <0>        -0.4628
      4 S1         -1.4241   -0.8535    0.0111 S.3       1 <0>        -0.0865
      5 C3         -0.9005   -2.5903   -0.0033 C.3       1 <0>        -0.0601
      6 H1         -0.2231   -2.7735    0.8309 H         1 <0>         0.1085
      7 C4         -0.1848   -2.8979   -1.3203 C.3       1 <0>        -0.0972
      8 C5         -1.1754   -2.7526   -2.4610 C.2       1 <0>        -0.0183
      9 C6         -0.8008   -2.0328   -3.5185 C.2       1 <0>        -0.2315
     10 C7         -1.7119   -1.8719   -4.6568 C.2       1 <0>         0.3896
     11 O2         -1.5963   -0.9548   -5.4427 O.2       1 <0>        -0.4548
     12 C8         -2.8054   -2.9124   -4.7998 C.3       1 <0>        -0.1675
     13 C9         -3.4907   -3.0448   -3.4405 C.3       1 <0>        -0.1034
     14 C10        -2.5067   -3.4292   -2.3500 C.3       1 <0>        -0.0255
     15 C11        -3.1324   -3.1361   -0.9805 C.3       1 <0>        -0.0732
     16 H2         -3.3553   -2.0713   -0.9129 H         1 <0>         0.0859
     17 C12        -2.1284   -3.4962    0.1260 C.3       1 <0>        -0.0598
     18 H3         -1.8316   -4.5409    0.0333 H         1 <0>         0.1084
     19 C13        -2.8065   -3.2536    1.4620 C.3       1 <0>        -0.0867
     20 H4         -3.1622   -2.2252    1.5250 H         1 <0>         0.0929
     21 C14        -1.9786   -3.6091    2.7028 C.3       1 <0>        -0.1134
     22 C15        -3.0641   -3.8464    3.7912 C.3       1 <0>        -0.1439
     23 C16        -4.3520   -4.2185    3.0328 C.3       1 <0>         0.1193
     24 C17        -3.9981   -4.2470    1.5548 C.3       1 <0>        -0.0467
     25 C18        -5.0436   -3.7809    0.5608 C.3       1 <0>        -0.1049
     26 C19        -4.4313   -3.9253   -0.8461 C.3       1 <0>        -0.1212
     27 C20        -3.5271   -5.6532    1.1784 C.3       1 <0>        -0.1475
     28 C21        -5.4589   -3.1890    3.3175 C.3       1 <0>        -0.1503
     29 C22        -6.2810   -3.8924    4.4267 C.3       1 <0>        -0.1865
     30 C23        -5.5352   -5.1989    4.6547 C.2       1 <0>         0.4823
     31 O3         -5.5324   -5.8644    5.6632 O.2       1 <0>        -0.4395
     32 O4         -4.8739   -5.4684    3.5007 O.3       1 <0>        -0.3359
     33 C24        -2.2779   -4.9398   -2.4307 C.3       1 <0>        -0.1534
     34 H5          1.0042    1.8801    0.0026 H         1 <0>         0.0923
     35 H6         -0.5455    1.8639   -0.8728 H         1 <0>         0.0982
     36 H7         -0.5286    1.8543    0.9071 H         1 <0>         0.0977
     37 H8          0.6390   -2.1980   -1.4605 H         1 <0>         0.0924
     38 H9          0.1995   -3.9176   -1.2978 H         1 <0>         0.0984
     39 H10         0.1736   -1.5675   -3.5370 H         1 <0>         0.1313
     40 H11        -3.5282   -2.5897   -5.5493 H         1 <0>         0.0938
     41 H12        -2.3710   -3.8689   -5.0905 H         1 <0>         0.1002
     42 H13        -3.9536   -2.0925   -3.1816 H         1 <0>         0.0719
     43 H14        -4.2653   -3.8089   -3.5059 H         1 <0>         0.0853
     44 H15        -1.3988   -4.5162    2.5325 H         1 <0>         0.0749
     45 H16        -1.3274   -2.7808    2.9820 H         1 <0>         0.0735
     46 H17        -2.7654   -4.6639    4.4474 H         1 <0>         0.0789
     47 H18        -3.2196   -2.9365    4.3710 H         1 <0>         0.0819
     48 H19        -5.9363   -4.4010    0.6426 H         1 <0>         0.0727
     49 H20        -5.2965   -2.7376    0.7498 H         1 <0>         0.0726
     50 H21        -5.1455   -3.5623   -1.5851 H         1 <0>         0.0725
     51 H22        -4.2282   -4.9789   -1.0382 H         1 <0>         0.0787
     52 H23        -2.7398   -5.9681    1.8633 H         1 <0>         0.0589
     53 H24        -4.3652   -6.3470    1.2446 H         1 <0>         0.0640
     54 H25        -3.1408   -5.6463    0.1592 H         1 <0>         0.0689
     55 H26        -5.0346   -2.2537    3.6826 H         1 <0>         0.0947
     56 H27        -6.0691   -3.0196    2.4303 H         1 <0>         0.0996
     57 H28        -6.2891   -3.2921    5.3365 H         1 <0>         0.1070
     58 H29        -7.2978   -4.0862    4.0853 H         1 <0>         0.1151
     59 H30        -1.6274   -5.2529   -1.6141 H         1 <0>         0.0630
     60 H31        -3.2342   -5.4569   -2.3522 H         1 <0>         0.0727
     61 H32        -1.8090   -5.1859   -3.3835 H         1 <0>         0.0606
@<TRIPOS>BOND
     1    1    2 1
     2    1   34 1
     3    1   35 1
     4    1   36 1
     5    2    3 2
     6    2    4 1
     7    4    5 1
     8    5    6 1
     9    5   17 1
    10    5    7 1
    11    7    8 1
    12    7   37 1
    13    7   38 1
    14    8   14 1
    15    8    9 2
    16    9   10 1
    17    9   39 1
    18   10   11 2
    19   10   12 1
    20   12   13 1
    21   12   40 1
    22   12   41 1
    23   13   14 1
    24   13   42 1
    25   13   43 1
    26   14   15 1
    27   14   33 1
    28   15   16 1
    29   15   26 1
    30   15   17 1
    31   17   18 1
    32   17   19 1
    33   19   20 1
    34   19   24 1
    35   19   21 1
    36   21   22 1
    37   21   44 1
    38   21   45 1
    39   22   23 1
    40   22   46 1
    41   22   47 1
    42   23   32 1
    43   23   24 1
    44   23   28 1
    45   24   25 1
    46   24   27 1
    47   25   26 1
    48   25   48 1
    49   25   49 1
    50   26   50 1
    51   26   51 1
    52   27   52 1
    53   27   53 1
    54   27   54 1
    55   28   29 1
    56   28   55 1
    57   28   56 1
    58   29   30 1
    59   29   57 1
    60   29   58 1
    61   30   31 2
    62   30   32 1
    63   33   59 1
    64   33   60 1
    65   33   61 1
@<TRIPOS>MOLECULE
CHEMBL523659
   40    43     0     0     0
SMALL
USER_CHARGES

@<TRIPOS>ATOM
      1 C1         -0.1180    1.5203   -0.0504 C.3       1 <0>        -0.1933
      2 C2          0.0021   -0.0041    0.0020 C.3       1 <0>         0.2570
      3 C3         -1.3749   -0.5880   -0.0699 C.ar      1 <0>        -0.1338
      4 C4         -1.8248   -0.9277   -1.3406 C.ar      1 <0>        -0.0537
      5 C5         -3.0859   -1.4813   -1.5341 C.ar      1 <0>        -0.0461
      6 C6         -3.9114   -1.6979   -0.4277 C.ar      1 <0>        -0.0745
      7 C7         -3.4658   -1.3604    0.8232 C.ar      1 <0>        -0.1541
      8 C8         -2.1918   -0.7983    1.0241 C.ar      1 <0>         0.1935
      9 N1         -1.8837   -0.5020    2.3324 N.am      1 <0>        -0.6463
     10 C9         -0.8034   -0.1288    2.9649 C.2       1 <0>         0.4968
     11 O1         -0.8402   -0.1627    4.1767 O.2       1 <0>        -0.5255
     12 C10         0.4698    0.3341    2.3444 C.3       1 <0>         0.0480
     13 O2          0.7346   -0.3483    1.1401 O.3       1 <0>        -0.3465
     14 C11        -3.5470   -1.8353   -2.8920 C.2       1 <0>         0.1017
     15 C12        -2.8265   -1.6758   -4.0558 C.2       1 <0>        -0.1763
     16 C13        -3.6185   -2.1307   -5.1093 C.2       1 <0>        -0.1044
     17 C14        -4.8149   -2.5628   -4.5719 C.2       1 <0>         0.0615
     18 N2         -4.7585   -2.3825   -3.2082 N.pl3     1 <0>        -0.5261
     19 H1         -5.4617   -2.6042   -2.5779 H         1 <0>         0.4213
     20 C15        -5.9181   -3.1084   -5.3039 C.1       1 <0>         0.2741
     21 N3         -6.7933   -3.5412   -5.8846 N.1       1 <0>        -0.4007
     22 C16         0.7703   -0.4590   -1.2120 C.2       1 <0>        -0.1543
     23 C17         1.5840   -1.5338   -1.3540 C.2       1 <0>        -0.1188
     24 C18         2.1908   -1.7585   -2.5754 C.2       1 <0>        -0.1578
     25 C19         1.9543   -0.8974   -3.5952 C.2       1 <0>        -0.1636
     26 S1          0.8387    0.2733   -2.8387 S.3       1 <0>         0.0534
     27 H2          0.8774    1.9617   -0.0994 H         1 <0>         0.0832
     28 H3         -0.6877    1.8097   -0.9335 H         1 <0>         0.0823
     29 H4         -0.6294    1.8755    0.8443 H         1 <0>         0.0713
     30 H5         -1.1833   -0.7590   -2.1929 H         1 <0>         0.1452
     31 H6         -4.8936   -2.1278   -0.5577 H         1 <0>         0.1283
     32 H7         -4.1077   -1.5298    1.6751 H         1 <0>         0.1356
     33 H8         -2.6479   -0.5909    2.9231 H         1 <0>         0.4021
     34 H9          0.3989    1.4024    2.1403 H         1 <0>         0.1008
     35 H10         1.2898    0.1592    3.0409 H         1 <0>         0.1469
     36 H11        -1.8285   -1.2713   -4.1373 H         1 <0>         0.1519
     37 H12        -3.3463   -2.1425   -6.1544 H         1 <0>         0.1549
     38 H13         1.7558   -2.2044   -0.5250 H         1 <0>         0.1383
     39 H14         2.8439   -2.6072   -2.7150 H         1 <0>         0.1378
     40 H15         2.3379   -0.9168   -4.6045 H         1 <0>         0.1899
@<TRIPOS>BOND
     1    1    2 1
     2    1   27 1
     3    1   28 1
     4    1   29 1
     5    2   13 1
     6    2    3 1
     7    2   22 1
     8    3    8 ar
     9    3    4 ar
    10    4    5 ar
    11    4   30 1
    12    5    6 ar
    13    5   14 1
    14    6    7 ar
    15    6   31 1
    16    7    8 ar
    17    7   32 1
    18    8    9 1
    19    9   10 am
    20    9   33 1
    21   10   11 2
    22   10   12 1
    23   12   13 1
    24   12   34 1
    25   12   35 1
    26   14   18 1
    27   14   15 2
    28   15   16 1
    29   15   36 1
    30   16   17 2
    31   16   37 1
    32   17   18 1
    33   17   20 1
    34   18   19 1
    35   20   21 3
    36   22   26 1
    37   22   23 2
    38   23   24 1
    39   23   38 1
    40   24   25 2
    41   24   39 1
    42   25   26 1
    43   25   40 1
@<TRIPOS>MOLECULE
CHEMBL523659__1
   39    42     0     0     0
SMALL
USER_CHARGES

@<TRIPOS>ATOM
      1 C1         -0.1164    1.5205   -0.0494 C.3       1 <0>        -0.1899
      2 C2          0.0021   -0.0041    0.0020 C.3       1 <0>         0.2597
      3 C3         -1.3754   -0.5865   -0.0708 C.ar      1 <0>        -0.1322
      4 C4         -1.8253   -0.9248   -1.3420 C.ar      1 <0>        -0.0918
      5 C5         -3.0869   -1.4769   -1.5364 C.ar      1 <0>         0.0392
      6 C6         -3.9130   -1.6934   -0.4304 C.ar      1 <0>        -0.0906
      7 C7         -3.4676   -1.3572    0.8209 C.ar      1 <0>        -0.1538
      8 C8         -2.1930   -0.7966    1.0226 C.ar      1 <0>         0.1360
      9 N1         -1.8851   -0.5016    2.3313 N.am      1 <0>        -0.6362
     10 C9         -0.8047   -0.1299    2.9645 C.2       1 <0>         0.4934
     11 O1         -0.8420   -0.1646    4.1763 O.2       1 <0>        -0.5516
     12 C10         0.4692    0.3320    2.3448 C.3       1 <0>         0.0509
     13 O2          0.7337   -0.3499    1.1401 O.3       1 <0>        -0.3509
     14 C11        -3.5478   -1.8295   -2.8946 C.2       1 <0>        -0.0193
     15 C12        -4.7722   -2.3748   -3.2150 C.2       1 <0>        -0.2346
     16 C13        -4.8069   -2.5538   -4.5973 C.2       1 <0>        -0.2022
     17 C14        -3.5995   -2.1139   -5.1027 C.2       1 <0>        -0.0258
     18 N2         -2.8352   -1.6654   -4.0490 N.2       1 <0>        -0.4831
     19 C15        -3.2126   -2.1179   -6.4814 C.1       1 <0>         0.3317
     20 N3         -2.9057   -2.1210   -7.5752 N.1       1 <0>        -0.5110
     21 C16         0.7703   -0.4590   -1.2120 C.2       1 <0>        -0.1431
     22 C17         1.5840   -1.5338   -1.3540 C.2       1 <0>        -0.1297
     23 C18         2.1908   -1.7585   -2.5754 C.2       1 <0>        -0.1599
     24 C19         1.9543   -0.8974   -3.5952 C.2       1 <0>        -0.1708
     25 S1          0.8387    0.2733   -2.8387 S.3       1 <0>         0.0746
     26 H1          0.8795    1.9609   -0.0977 H         1 <0>         0.0757
     27 H2         -0.6854    1.8111   -0.9325 H         1 <0>         0.0815
     28 H3         -0.6277    1.8756    0.8453 H         1 <0>         0.0681
     29 H4         -1.1832   -0.7562   -2.1939 H         1 <0>         0.1446
     30 H5         -4.8956   -2.1221   -0.5611 H         1 <0>         0.1294
     31 H6         -4.1100   -1.5265    1.6724 H         1 <0>         0.1214
     32 H7         -2.6497   -0.5900    2.9217 H         1 <0>         0.3962
     33 H8          0.3996    1.4006    2.1414 H         1 <0>         0.0941
     34 H9          1.2888    0.1557    3.0415 H         1 <0>         0.1385
     35 H10        -5.5623   -2.6193   -2.5206 H         1 <0>         0.0962
     36 H11        -5.6277   -2.9621   -5.1682 H         1 <0>         0.0963
     37 H12         1.7558   -2.2044   -0.5250 H         1 <0>         0.1335
     38 H13         2.8439   -2.6072   -2.7150 H         1 <0>         0.1313
     39 H14         2.3379   -0.9168   -4.6045 H         1 <0>         0.1840
@<TRIPOS>BOND
     1    1    2 1
     2    1   26 1
     3    1   27 1
     4    1   28 1
     5    2   13 1
     6    2    3 1
     7    2   21 1
     8    3    8 ar
     9    3    4 ar
    10    4    5 ar
    11    4   29 1
    12    5    6 ar
    13    5   14 1
    14    6    7 ar
    15    6   30 1
    16    7    8 ar
    17    7   31 1
    18    8    9 1
    19    9   10 am
    20    9   32 1
    21   10   11 2
    22   10   12 1
    23   12   13 1
    24   12   33 1
    25   12   34 1
    26   14   18 1
    27   14   15 2
    28   15   16 1
    29   15   35 1
    30   16   17 2
    31   16   36 1
    32   17   18 1
    33   17   19 1
    34   19   20 3
    35   21   25 1
    36   21   22 2
    37   22   23 1
    38   22   37 1
    39   23   24 2
    40   23   38 1
    41   24   25 1
    42   24   39 1
@<TRIPOS>MOLECULE
CHEMBL523659__2
   40    43     0     0     0
SMALL
USER_CHARGES

@<TRIPOS>ATOM
      1 C1         -0.0077    1.5178    0.1589 C.3       1 <0>        -0.1934
      2 C2          0.0021   -0.0041    0.0020 C.3       1 <0>         0.2571
      3 C3          0.5366   -0.3343   -1.3571 C.ar      1 <0>        -0.1337
      4 C4         -0.4125   -0.4981   -2.3596 C.ar      1 <0>        -0.0535
      5 C5         -0.0378   -0.8088   -3.6625 C.ar      1 <0>        -0.0462
      6 C6          1.3184   -0.9589   -3.9633 C.ar      1 <0>        -0.0745
      7 C7          2.2515   -0.7961   -2.9734 C.ar      1 <0>        -0.1542
      8 C8          1.8779   -0.4788   -1.6546 C.ar      1 <0>         0.1935
      9 N1          2.9225   -0.3359   -0.7698 N.am      1 <0>        -0.6463
     10 C9          3.0236   -0.2020    0.5257 C.2       1 <0>         0.4968
     11 O1          4.1332   -0.3159    1.0020 O.2       1 <0>        -0.5256
     12 C10         1.9103    0.0774    1.4758 C.3       1 <0>         0.0481
     13 O2          0.7160   -0.5514    1.0702 O.3       1 <0>        -0.3465
     14 C11        -1.0605   -0.9784   -4.7145 C.2       1 <0>         0.1018
     15 C12        -2.4221   -0.8511   -4.5442 C.2       1 <0>        -0.1764
     16 C13        -3.0268   -1.0889   -5.7778 C.2       1 <0>        -0.1043
     17 C14        -2.0228   -1.3588   -6.6865 C.2       1 <0>         0.0615
     18 N2         -0.8180   -1.2826   -6.0244 N.pl3     1 <0>        -0.5262
     19 H1          0.0560   -1.4237   -6.4207 H         1 <0>         0.4213
     20 C15        -2.2027   -1.6592   -8.0750 C.1       1 <0>         0.2741
     21 N3         -2.3453   -1.8974   -9.1765 N.1       1 <0>        -0.4007
     22 C16        -1.4203   -0.4958    0.0807 C.2       1 <0>        -0.1544
     23 C17        -1.8899   -1.6785    0.5476 C.2       1 <0>        -0.1188
     24 C18        -3.2514   -1.9159    0.5228 C.2       1 <0>        -0.1578
     25 C19        -4.0767   -0.9589    0.0324 C.2       1 <0>        -0.1636
     26 S1         -2.9245    0.3312   -0.4096 S.3       1 <0>         0.0534
     27 H2          1.0167    1.8903    0.1532 H         1 <0>         0.0713
     28 H3         -0.5614    1.9646   -0.6669 H         1 <0>         0.0823
     29 H4         -0.4854    1.7828    1.1021 H         1 <0>         0.0831
     30 H5         -1.4597   -0.3815   -2.1225 H         1 <0>         0.1452
     31 H6          1.6289   -1.2019   -4.9688 H         1 <0>         0.1283
     32 H7          3.2985   -0.9139   -3.2110 H         1 <0>         0.1356
     33 H8          3.7859   -0.3346   -1.2118 H         1 <0>         0.4021
     34 H9          2.1865   -0.2866    2.4653 H         1 <0>         0.1469
     35 H10         1.7467    1.1539    1.5263 H         1 <0>         0.1008
     36 H11        -2.9293   -0.6105   -3.6215 H         1 <0>         0.1520
     37 H12        -4.0866   -1.0664   -5.9846 H         1 <0>         0.1549
     38 H13        -1.2105   -2.4244    0.9328 H         1 <0>         0.1383
     39 H14        -3.6517   -2.8500    0.8884 H         1 <0>         0.1378
     40 H15        -5.1524   -0.9719   -0.0625 H         1 <0>         0.1899
@<TRIPOS>BOND
     1    1    2 1
     2    1   27 1
     3    1   28 1
     4    1   29 1
     5    2   13 1
     6    2    3 1
     7    2   22 1
     8    3    8 ar
     9    3    4 ar
    10    4    5 ar
    11    4   30 1
    12    5    6 ar
    13    5   14 1
    14    6    7 ar
    15    6   31 1
    16    7    8 ar
    17    7   32 1
    18    8    9 1
    19    9   10 am
    20    9   33 1
    21   10   11 2
    22   10   12 1
    23   12   13 1
    24   12   34 1
    25   12   35 1
    26   14   18 1
    27   14   15 2
    28   15   16 1
    29   15   36 1
    30   16   17 2
    31   16   37 1
    32   17   18 1
    33   17   20 1
    34   18   19 1
    35   20   21 3
    36   22   26 1
    37   22   23 2
    38   23   24 1
    39   23   38 1
    40   24   25 2
    41   24   39 1
    42   25   26 1
    43   25   40 1
@<TRIPOS>MOLECULE
CHEMBL523659__3
   39    42     0     0     0
SMALL
USER_CHARGES

@<TRIPOS>ATOM
      1 C1         -0.0076    1.5176    0.1607 C.3       1 <0>        -0.1900
      2 C2          0.0021   -0.0041    0.0020 C.3       1 <0>         0.2597
      3 C3          0.5360   -0.3327   -1.3577 C.ar      1 <0>        -0.1321
      4 C4         -0.4135   -0.4951   -2.3601 C.ar      1 <0>        -0.0916
      5 C5         -0.0394   -0.8043   -3.6634 C.ar      1 <0>         0.0392
      6 C6          1.3167   -0.9542   -3.9651 C.ar      1 <0>        -0.0905
      7 C7          2.2502   -0.7926   -2.9753 C.ar      1 <0>        -0.1538
      8 C8          1.8771   -0.4769   -1.6559 C.ar      1 <0>         0.1360
      9 N1          2.9221   -0.3352   -0.7715 N.am      1 <0>        -0.6361
     10 C9          3.0238   -0.2028    0.5241 C.2       1 <0>         0.4933
     11 O1          4.1336   -0.3174    0.9999 O.2       1 <0>        -0.5517
     12 C10         1.9109    0.0755    1.4751 C.3       1 <0>         0.0510
     13 O2          0.7164   -0.5527    1.0692 O.3       1 <0>        -0.3509
     14 C11        -1.0626   -0.9726   -4.7153 C.2       1 <0>        -0.0192
     15 C12        -0.8189   -1.2831   -6.0356 C.2       1 <0>        -0.2346
     16 C13        -2.0490   -1.3489   -6.6887 C.2       1 <0>        -0.2022
     17 C14        -3.0292   -1.0768   -5.7549 C.2       1 <0>        -0.0259
     18 N2         -2.4130   -0.8527   -4.5442 N.2       1 <0>        -0.4831
     19 C15        -4.4394   -1.0400   -6.0011 C.1       1 <0>         0.3317
     20 N3         -5.5581   -1.0109   -6.1965 N.1       1 <0>        -0.5110
     21 C16        -1.4203   -0.4958    0.0807 C.2       1 <0>        -0.1429
     22 C17        -1.8899   -1.6785    0.5476 C.2       1 <0>        -0.1298
     23 C18        -3.2514   -1.9159    0.5228 C.2       1 <0>        -0.1601
     24 C19        -4.0767   -0.9589    0.0324 C.2       1 <0>        -0.1706
     25 S1         -2.9245    0.3312   -0.4096 S.3       1 <0>         0.0744
     26 H1          1.0168    1.8900    0.1550 H         1 <0>         0.0681
     27 H2         -0.5615    1.9655   -0.6643 H         1 <0>         0.0815
     28 H3         -0.4848    1.7815    1.1045 H         1 <0>         0.0757
     29 H4         -1.4606   -0.3788   -2.1224 H         1 <0>         0.1446
     30 H5          1.6267   -1.1960   -4.9710 H         1 <0>         0.1294
     31 H6          3.2971   -0.9102   -3.2135 H         1 <0>         0.1214
     32 H7          3.7854   -0.3334   -1.2138 H         1 <0>         0.3962
     33 H8          2.1875   -0.2898    2.4641 H         1 <0>         0.1385
     34 H9          1.7474    1.1519    1.5270 H         1 <0>         0.0941
     35 H10         0.1501   -1.4462   -6.4837 H         1 <0>         0.0962
     36 H11        -2.2064   -1.5716   -7.7337 H         1 <0>         0.0963
     37 H12        -1.2105   -2.4244    0.9328 H         1 <0>         0.1335
     38 H13        -3.6517   -2.8500    0.8884 H         1 <0>         0.1313
     39 H14        -5.1524   -0.9719   -0.0625 H         1 <0>         0.1841
@<TRIPOS>BOND
     1    1    2 1
     2    1   26 1
     3    1   27 1
     4    1   28 1
     5    2   13 1
     6    2    3 1
     7    2   21 1
     8    3    8 ar
     9    3    4 ar
    10    4    5 ar
    11    4   29 1
    12    5    6 ar
    13    5   14 1
    14    6    7 ar
    15    6   30 1
    16    7    8 ar
    17    7   31 1
    18    8    9 1
    19    9   10 am
    20    9   32 1
    21   10   11 2
    22   10   12 1
    23   12   13 1
    24   12   33 1
    25   12   34 1
    26   14   18 1
    27   14   15 2
    28   15   16 1
    29   15   35 1
    30   16   17 2
    31   16   36 1
    32   17   18 1
    33   17   19 1
    34   19   20 3
    35   21   25 1
    36   21   22 2
    37   22   23 1
    38   22   37 1
    39   23   24 2
    40   23   38 1
    41   24   25 1
    42   24   39 1
@<TRIPOS>MOLECULE
CHEMBL260869
   78    84     0     0     0
SMALL
USER_CHARGES

@<TRIPOS>ATOM
      1 C1          1.7869    1.4931    1.1259 C.3       1 <0>        -0.1485
      2 C2          1.4284    0.0382    0.8165 C.3       1 <0>        -0.0741
      3 H1          2.1341   -0.3755    0.0960 H         1 <0>         0.0739
      4 C3         -0.0126   -0.0465    0.2575 C.3       1 <0>        -0.1096
      5 C4         -0.8004   -0.8589    1.2831 C.3       1 <0>        -0.0784
      6 H2         -1.2157   -0.1957    2.0419 H         1 <0>         0.0771
      7 C5         -1.8982   -1.7438    0.7124 C.3       1 <0>        -0.0455
      8 H3         -1.4679   -2.3912   -0.0516 H         1 <0>         0.0964
      9 C6         -2.9731   -0.8785    0.0767 C.3       1 <0>        -0.1116
     10 C7         -4.2537   -1.6724   -0.1791 C.3       1 <0>        -0.0964
     11 C8         -4.7176   -2.2370    1.1402 C.2       1 <0>         0.0251
     12 C9         -6.0207   -2.2182    1.4980 C.2       1 <0>        -0.2473
     13 C10        -6.4203   -2.6609    2.7707 C.2       1 <0>         0.3867
     14 O1         -7.6035   -2.7823    3.0170 O.2       1 <0>        -0.4693
     15 C11        -5.4053   -2.9876    3.8332 C.3       1 <0>        -0.1660
     16 C12        -4.1842   -3.6584    3.1979 C.3       1 <0>        -0.0816
     17 C13        -3.7161   -2.8191    2.0327 C.2       1 <0>        -0.1253
     18 C14        -2.4257   -2.5987    1.8366 C.2       1 <0>        -0.0481
     19 C15        -1.4647   -3.2946    2.7798 C.3       1 <0>        -0.0295
     20 H4         -2.0043   -3.6100    3.6728 H         1 <0>         0.1056
     21 C16        -0.3198   -2.3546    3.1871 C.3       1 <0>        -0.1012
     22 C17         0.2762   -1.7789    1.9172 C.3       1 <0>        -0.0489
     23 C18         1.4440   -0.8031    2.1206 C.3       1 <0>        -0.1201
     24 H5          1.2691   -0.1694    2.9900 H         1 <0>         0.0986
     25 C19         2.7459   -1.5498    2.2572 C.2       1 <0>         0.3911
     26 O2          2.8959   -2.6093    1.6975 O.2       1 <0>        -0.4381
     27 C20         3.8606   -0.9742    3.0922 C.3       1 <0>        -0.2242
     28 C21         5.2778   -1.0380    2.5193 C.3       1 <0>        -0.1494
     29 C22         4.8801   -1.9519    3.6801 C.3       1 <0>        -0.1516
     30 C23         0.6544   -2.9093    0.9579 C.3       1 <0>        -0.1508
     31 C24        -0.8890   -4.5072    2.0948 C.ar      1 <0>        -0.0490
     32 C25         0.2182   -5.1404    2.6301 C.ar      1 <0>        -0.1081
     33 C26         0.7495   -6.2512    2.0069 C.ar      1 <0>        -0.1046
     34 C27         0.1686   -6.7348    0.8363 C.ar      1 <0>        -0.0374
     35 C28        -0.9467   -6.0930    0.3014 C.ar      1 <0>        -0.1081
     36 C29        -1.4732   -4.9863    0.9361 C.ar      1 <0>        -0.1181
     37 C30         0.7357   -7.9284    0.1616 C.ar      1 <0>        -0.1316
     38 C31         0.1617   -8.4168   -1.0173 C.ar      1 <0>        -0.0339
     39 C32         0.7247   -9.5308   -1.6092 C.ar      1 <0>        -0.1850
     40 C33         1.8341  -10.1256   -1.0193 C.ar      1 <0>         0.3191
     41 N1          2.3530   -9.6389    0.0960 N.ar      1 <0>        -0.5360
     42 C34         1.8496   -8.5748    0.6892 C.ar      1 <0>         0.1509
     43 O3          2.3918  -11.2200   -1.5948 O.3       1 <0>        -0.3072
     44 C35         3.5298  -11.7872   -0.9426 C.3       1 <0>         0.0394
     45 H6          2.7880    1.5373    1.5548 H         1 <0>         0.0567
     46 H7          1.7595    2.0775    0.2063 H         1 <0>         0.0591
     47 H8          1.0686    1.9008    1.8372 H         1 <0>         0.0588
     48 H9         -0.4385    0.9520    0.1595 H         1 <0>         0.0709
     49 H10        -0.0137   -0.5541   -0.7071 H         1 <0>         0.0685
     50 H11        -3.1981   -0.0444    0.7414 H         1 <0>         0.0687
     51 H12        -2.6015   -0.4873   -0.8704 H         1 <0>         0.0772
     52 H13        -5.0201   -1.0147   -0.5891 H         1 <0>         0.0856
     53 H14        -4.0511   -2.4845   -0.8774 H         1 <0>         0.0883
     54 H15        -6.7621   -1.8592    0.7995 H         1 <0>         0.1347
     55 H16        -5.0953   -2.0696    4.3324 H         1 <0>         0.0989
     56 H17        -5.8504   -3.6631    4.5638 H         1 <0>         0.0949
     57 H18        -3.3855   -3.7365    3.9356 H         1 <0>         0.0934
     58 H19        -4.4564   -4.6532    2.8453 H         1 <0>         0.0819
     59 H20        -0.7064   -1.5453    3.8066 H         1 <0>         0.0715
     60 H21         0.4408   -2.9114    3.7345 H         1 <0>         0.0721
     61 H22         3.5978   -0.1013    3.6898 H         1 <0>         0.1213
     62 H23         5.4040   -1.4963    1.5384 H         1 <0>         0.1001
     63 H24         5.9477   -0.2069    2.7397 H         1 <0>         0.1036
     64 H25         5.2883   -1.7220    4.6643 H         1 <0>         0.1028
     65 H26         4.7446   -3.0114    3.4629 H         1 <0>         0.1034
     66 H27         1.2852   -2.5143    0.1616 H         1 <0>         0.0471
     67 H28         1.1976   -3.6815    1.5025 H         1 <0>         0.0838
     68 H29        -0.2503   -3.3374    0.5262 H         1 <0>         0.0687
     69 H30         0.6678   -4.7645    3.5373 H         1 <0>         0.1233
     70 H31         1.6142   -6.7446    2.4256 H         1 <0>         0.1230
     71 H32        -1.4007   -6.4634   -0.6058 H         1 <0>         0.1218
     72 H33        -2.3404   -4.4909    0.5250 H         1 <0>         0.1245
     73 H34        -0.7007   -7.9348   -1.4536 H         1 <0>         0.1437
     74 H35         0.3076   -9.9352   -2.5196 H         1 <0>         0.1445
     75 H36         2.3033   -8.2036    1.5962 H         1 <0>         0.1610
     76 H37         4.3266  -11.0451   -0.8914 H         1 <0>         0.0597
     77 H38         3.2545  -12.0949    0.0662 H         1 <0>         0.0597
     78 H39         3.8764  -12.6541   -1.5051 H         1 <0>         0.0976
@<TRIPOS>BOND
     1    1    2 1
     2    1   45 1
     3    1   46 1
     4    1   47 1
     5    2    3 1
     6    2   23 1
     7    2    4 1
     8    4    5 1
     9    4   48 1
    10    4   49 1
    11    5    6 1
    12    5   22 1
    13    5    7 1
    14    7    8 1
    15    7   18 1
    16    7    9 1
    17    9   10 1
    18    9   50 1
    19    9   51 1
    20   10   11 1
    21   10   52 1
    22   10   53 1
    23   11   17 1
    24   11   12 2
    25   12   13 1
    26   12   54 1
    27   13   14 2
    28   13   15 1
    29   15   16 1
    30   15   55 1
    31   15   56 1
    32   16   17 1
    33   16   57 1
    34   16   58 1
    35   17   18 2
    36   18   19 1
    37   19   20 1
    38   19   21 1
    39   19   31 1
    40   21   22 1
    41   21   59 1
    42   21   60 1
    43   22   23 1
    44   22   30 1
    45   23   24 1
    46   23   25 1
    47   25   26 2
    48   25   27 1
    49   27   29 1
    50   27   28 1
    51   27   61 1
    52   28   29 1
    53   28   62 1
    54   28   63 1
    55   29   64 1
    56   29   65 1
    57   30   66 1
    58   30   67 1
    59   30   68 1
    60   31   36 ar
    61   31   32 ar
    62   32   33 ar
    63   32   69 1
    64   33   34 ar
    65   33   70 1
    66   34   35 ar
    67   34   37 1
    68   35   36 ar
    69   35   71 1
    70   36   72 1
    71   37   42 ar
    72   37   38 ar
    73   38   39 ar
    74   38   73 1
    75   39   40 ar
    76   39   74 1
    77   40   41 ar
    78   40   43 1
    79   41   42 ar
    80   42   75 1
    81   43   44 1
    82   44   76 1
    83   44   77 1
    84   44   78 1
@<TRIPOS>MOLECULE
CHEMBL577034
   34    36     0     0     0
SMALL
USER_CHARGES

@<TRIPOS>ATOM
      1 C1         -0.0187    1.5258    0.0104 C.3       1 <0>        -0.1398
      2 C2          0.0021   -0.0041    0.0020 C.3       1 <0>        -0.0264
      3 C3         -1.4290   -0.5512    0.0916 C.3       1 <0>        -0.1670
      4 C4         -1.4679   -1.3631    1.3632 C.2       1 <0>         0.4063
      5 O1         -2.4288   -1.9643    1.7945 O.2       1 <0>        -0.4409
      6 C5         -0.1379   -1.2995    1.9884 C.ar      1 <0>        -0.1889
      7 C6          0.7300   -0.5198    1.2208 C.ar      1 <0>        -0.0306
      8 C7          2.0239   -0.3303    1.6258 C.ar      1 <0>        -0.1067
      9 C8          2.4860   -0.9126    2.8056 C.ar      1 <0>        -0.0064
     10 C9          1.6268   -1.6936    3.5799 C.ar      1 <0>        -0.1255
     11 C10         0.3267   -1.8863    3.1780 C.ar      1 <0>        -0.0441
     12 C11         3.8885   -0.7020    3.2371 C.ar      1 <0>        -0.0405
     13 C12         4.7469    0.0832    2.4681 C.ar      1 <0>        -0.1015
     14 C13         6.0512    0.2765    2.8744 C.ar      1 <0>        -0.1034
     15 C14         6.5087   -0.3066    4.0425 C.ar      1 <0>        -0.1044
     16 C15         5.6618   -1.0875    4.8102 C.ar      1 <0>        -0.0326
     17 C16         4.3524   -1.2832    4.4160 C.ar      1 <0>        -0.0978
     18 Cl1         6.2442   -1.8161    6.2744 Cl        1 <0>        -0.0634
     19 C17         0.6819   -0.5130   -1.2706 C.3       1 <0>        -0.1397
     20 H1          1.0039    1.9031    0.0027 H         1 <0>         0.0631
     21 H2         -0.5459    1.8868   -0.8726 H         1 <0>         0.0675
     22 H3         -0.5289    1.8773    0.9072 H         1 <0>         0.0605
     23 H4         -2.1443    0.2695    0.1456 H         1 <0>         0.1119
     24 H5         -1.6452   -1.1855   -0.7681 H         1 <0>         0.1119
     25 H6          2.6907    0.2734    1.0281 H         1 <0>         0.1316
     26 H7          1.9828   -2.1454    4.4940 H         1 <0>         0.1352
     27 H8         -0.3387   -2.4906    3.7768 H         1 <0>         0.1337
     28 H9          4.3914    0.5388    1.5558 H         1 <0>         0.1340
     29 H10         6.7165    0.8842    2.2791 H         1 <0>         0.1375
     30 H11         7.5304   -0.1524    4.3565 H         1 <0>         0.1367
     31 H12         3.6908   -1.8888    5.0176 H         1 <0>         0.1383
     32 H13         1.7096   -0.1512   -1.3031 H         1 <0>         0.0632
     33 H14         0.6803   -1.6030   -1.2725 H         1 <0>         0.0605
     34 H15         0.1403   -0.1474   -2.1430 H         1 <0>         0.0675
@<TRIPOS>BOND
     1    1    2 1
     2    1   20 1
     3    1   21 1
     4    1   22 1
     5    2    7 1
     6    2    3 1
     7    2   19 1
     8    3    4 1
     9    3   23 1
    10    3   24 1
    11    4    5 2
    12    4    6 1
    13    6   11 ar
    14    6    7 ar
    15    7    8 ar
    16    8    9 ar
    17    8   25 1
    18    9   10 ar
    19    9   12 1
    20   10   11 ar
    21   10   26 1
    22   11   27 1
    23   12   17 ar
    24   12   13 ar
    25   13   14 ar
    26   13   28 1
    27   14   15 ar
    28   14   29 1
    29   15   16 ar
    30   15   30 1
    31   16   17 ar
    32   16   18 1
    33   17   31 1
    34   19   32 1
    35   19   33 1
    36   19   34 1
@<TRIPOS>MOLECULE
CHEMBL1209180
   35    37     0     0     0
SMALL
USER_CHARGES

@<TRIPOS>ATOM
      1 C1          0.1832   -3.0335    1.2367 C.3       1 <0>         0.0539
      2 N1         -0.6938   -2.0508    0.5953 N.pl3     1 <0>        -0.4141
      3 C2         -1.1249   -2.0904   -0.7101 C.2       1 <0>         0.0572
      4 C3         -1.9318   -0.9911   -0.9273 C.2       1 <0>        -0.1088
      5 C4         -1.9911   -0.2730    0.2661 C.2       1 <0>        -0.1735
      6 C5         -1.2258   -0.9440    1.1957 C.2       1 <0>         0.0878
      7 C6         -1.0142   -0.5354    2.5984 C.ar      1 <0>        -0.0007
      8 C7         -1.3229    0.7675    2.9998 C.ar      1 <0>        -0.1084
      9 C8         -1.1251    1.1453    4.2972 C.ar      1 <0>        -0.0798
     10 C9         -0.6162    0.2315    5.2242 C.ar      1 <0>        -0.0990
     11 C10        -0.3084   -1.0731    4.8348 C.ar      1 <0>        -0.0418
     12 C11        -0.5113   -1.4529    3.5234 C.ar      1 <0>        -0.1429
     13 C12         0.2283   -2.0824    5.8125 C.3       1 <0>        -0.0879
     14 C13         0.8891   -1.3999    7.0069 C.3       1 <0>        -0.1148
     15 C14        -0.1039   -0.4215    7.6478 C.3       1 <0>        -0.0644
     16 C15        -0.4012    0.6557    6.6253 C.2       1 <0>         0.1737
     17 N2         -0.4646    1.9029    6.9651 N.2       1 <0>        -0.3302
     18 O1         -0.5583    2.9043    5.9684 O.3       1 <0>        -0.4010
     19 C16        -0.7941   -3.0952   -1.6753 C.1       1 <0>         0.2768
     20 N3         -0.5316   -3.8923   -2.4410 N.1       1 <0>        -0.4028
     21 H1         -0.4214   -3.7647    1.7732 H         1 <0>         0.0867
     22 H2          0.7774   -3.5409    0.4766 H         1 <0>         0.0883
     23 H3          0.8463   -2.5261    1.9374 H         1 <0>         0.0999
     24 H4         -2.4265   -0.7346   -1.8525 H         1 <0>         0.1551
     25 H5         -2.5407    0.6416    0.4332 H         1 <0>         0.1538
     26 H6         -1.7170    1.4745    2.2848 H         1 <0>         0.1343
     27 H7         -1.3621    2.1523    4.6073 H         1 <0>         0.1601
     28 H8         -0.2773   -2.4600    3.2113 H         1 <0>         0.1326
     29 H9         -0.5917   -2.7070    6.1670 H         1 <0>         0.0862
     30 H10         0.9628   -2.7112    5.3093 H         1 <0>         0.0816
     31 H11         1.1823   -2.1522    7.7391 H         1 <0>         0.0859
     32 H12         1.7716   -0.8550    6.6718 H         1 <0>         0.0711
     33 H13        -1.0225   -0.9455    7.9118 H         1 <0>         0.0954
     34 H14         0.3382    0.0249    8.5385 H         1 <0>         0.0925
     35 H15        -0.6005    3.8048    6.3183 H         1 <0>         0.3972
@<TRIPOS>BOND
     1    1    2 1
     2    1   21 1
     3    1   22 1
     4    1   23 1
     5    2    6 1
     6    2    3 1
     7    3    4 2
     8    3   19 1
     9    4    5 1
    10    4   24 1
    11    5    6 2
    12    5   25 1
    13    6    7 1
    14    7   12 ar
    15    7    8 ar
    16    8    9 ar
    17    8   26 1
    18    9   10 ar
    19    9   27 1
    20   10   16 1
    21   10   11 ar
    22   11   12 ar
    23   11   13 1
    24   12   28 1
    25   13   14 1
    26   13   29 1
    27   13   30 1
    28   14   15 1
    29   14   31 1
    30   14   32 1
    31   15   16 1
    32   15   33 1
    33   15   34 1
    34   16   17 2
    35   17   18 1
    36   18   35 1
    37   19   20 3
@<TRIPOS>MOLECULE
CHEMBL324499
   34    37     0     0     0
SMALL
USER_CHARGES

@<TRIPOS>ATOM
      1 C1         -0.0167    1.3786    0.0096 C.ar      1 <0>        -0.1008
      2 C2          1.1676    2.0878    0.0021 C.ar      1 <0>        -0.1094
      3 C3          2.3841    1.4084   -0.0131 C.ar      1 <0>        -0.0241
      4 C4          2.3983    0.0149   -0.0207 C.ar      1 <0>        -0.1063
      5 C5          1.2076   -0.6849   -0.0131 C.ar      1 <0>        -0.0294
      6 C6          0.0021   -0.0041    0.0020 C.ar      1 <0>        -0.1117
      7 Cl1         1.2226   -2.4209   -0.0230 Cl        1 <0>        -0.0661
      8 C7          3.6596    2.1659   -0.0217 C.ar      1 <0>        -0.0684
      9 C8          3.6477    3.5599   -0.0088 C.ar      1 <0>        -0.0694
     10 C9          4.8313    4.2629   -0.0181 C.ar      1 <0>        -0.1345
     11 C10         6.0516    3.5884   -0.0398 C.ar      1 <0>         0.1497
     12 C11         6.0566    2.1955   -0.0510 C.ar      1 <0>        -0.1213
     13 C12         4.8783    1.4878   -0.0369 C.ar      1 <0>        -0.0494
     14 C13         7.5041    1.7905   -0.0705 C.3       1 <0>        -0.0898
     15 C14         7.9026    0.7759   -1.1417 C.3       1 <0>        -0.1028
     16 C15         8.8539    0.1715   -0.0930 C.3       1 <0>        -0.1406
     17 C16         7.9267    0.7661    0.9826 C.3       1 <0>        -0.1030
     18 C17         8.2719    3.0850   -0.0724 C.2       1 <0>         0.5511
     19 O1          9.4781    3.2115   -0.0876 O.2       1 <0>        -0.4878
     20 N1          7.3598    4.0755   -0.0540 N.am      1 <0>        -0.6603
     21 H1         -0.9598    1.9047    0.0260 H         1 <0>         0.1358
     22 H2          1.1513    3.1677    0.0077 H         1 <0>         0.1329
     23 H3          3.3383   -0.5166   -0.0328 H         1 <0>         0.1359
     24 H4         -0.9269   -0.5548    0.0079 H         1 <0>         0.1349
     25 H5          2.7069    4.0901    0.0081 H         1 <0>         0.1369
     26 H6          4.8147    5.3427   -0.0088 H         1 <0>         0.1317
     27 H7          4.8961    0.4079   -0.0422 H         1 <0>         0.1320
     28 H8          7.0926    0.1077   -1.4341 H         1 <0>         0.0972
     29 H9          8.4166    1.2192   -1.9946 H         1 <0>         0.0767
     30 H10         8.8731   -0.9183   -0.0982 H         1 <0>         0.0780
     31 H11         9.8504    0.6130   -0.1023 H         1 <0>         0.0923
     32 H12         8.4600    1.2018    1.8275 H         1 <0>         0.0767
     33 H13         7.1236    0.0951    1.2872 H         1 <0>         0.0973
     34 H14         7.5857    5.0188   -0.0510 H         1 <0>         0.4158
@<TRIPOS>BOND
     1    1    6 ar
     2    1    2 ar
     3    1   21 1
     4    2    3 ar
     5    2   22 1
     6    3    4 ar
     7    3    8 1
     8    4    5 ar
     9    4   23 1
    10    5    6 ar
    11    5    7 1
    12    6   24 1
    13    8   13 ar
    14    8    9 ar
    15    9   10 ar
    16    9   25 1
    17   10   11 ar
    18   10   26 1
    19   11   20 1
    20   11   12 ar
    21   12   13 ar
    22   12   14 1
    23   13   27 1
    24   14   17 1
    25   14   15 1
    26   14   18 1
    27   15   16 1
    28   15   28 1
    29   15   29 1
    30   16   17 1
    31   16   30 1
    32   16   31 1
    33   17   32 1
    34   17   33 1
    35   18   19 2
    36   18   20 am
    37   20   34 1
@<TRIPOS>MOLECULE
CHEMBL438593
   73    79     0     0     0
SMALL
USER_CHARGES

@<TRIPOS>ATOM
      1 C1          1.7869    1.4931    1.1260 C.3       1 <0>        -0.1485
      2 C2          1.4285    0.0382    0.8165 C.3       1 <0>        -0.0743
      3 H1          2.1341   -0.3755    0.0960 H         1 <0>         0.0740
      4 C3         -0.0125   -0.0465    0.2575 C.3       1 <0>        -0.1095
      5 C4         -0.8004   -0.8589    1.2831 C.3       1 <0>        -0.0785
      6 H2         -1.2156   -0.1957    2.0419 H         1 <0>         0.0777
      7 C5         -1.8982   -1.7438    0.7124 C.3       1 <0>        -0.0456
      8 H3         -1.4678   -2.3912   -0.0517 H         1 <0>         0.0964
      9 C6         -2.9731   -0.8784    0.0767 C.3       1 <0>        -0.1115
     10 C7         -4.2536   -1.6724   -0.1792 C.3       1 <0>        -0.0963
     11 C8         -4.7176   -2.2369    1.1401 C.2       1 <0>         0.0245
     12 C9         -6.0207   -2.2181    1.4980 C.2       1 <0>        -0.2465
     13 C10        -6.4203   -2.6609    2.7707 C.2       1 <0>         0.3865
     14 O1         -7.6035   -2.7822    3.0170 O.2       1 <0>        -0.4690
     15 C11        -5.4053   -2.9876    3.8332 C.3       1 <0>        -0.1661
     16 C12        -4.1842   -3.6584    3.1979 C.3       1 <0>        -0.0821
     17 C13        -3.7161   -2.8191    2.0327 C.2       1 <0>        -0.1242
     18 C14        -2.4257   -2.5986    1.8366 C.2       1 <0>        -0.0492
     19 C15        -1.4647   -3.2946    2.7798 C.3       1 <0>        -0.0316
     20 H4         -2.0044   -3.6100    3.6728 H         1 <0>         0.1080
     21 C16        -0.3198   -2.3546    3.1871 C.3       1 <0>        -0.1016
     22 C17         0.2763   -1.7789    1.9172 C.3       1 <0>        -0.0492
     23 C18         1.4440   -0.8031    2.1206 C.3       1 <0>        -0.1199
     24 H5          1.2692   -0.1694    2.9900 H         1 <0>         0.0990
     25 C19         2.7459   -1.5498    2.2572 C.2       1 <0>         0.3903
     26 O2          2.8959   -2.6093    1.6975 O.2       1 <0>        -0.4375
     27 C20         3.8606   -0.9742    3.0922 C.3       1 <0>        -0.2243
     28 C21         5.2778   -1.0381    2.5193 C.3       1 <0>        -0.1495
     29 C22         4.8801   -1.9519    3.6801 C.3       1 <0>        -0.1515
     30 C23         0.6544   -2.9093    0.9579 C.3       1 <0>        -0.1525
     31 C24        -0.8890   -4.5072    2.0948 C.ar      1 <0>        -0.0319
     32 C25         0.2181   -5.1403    2.6301 C.ar      1 <0>        -0.1191
     33 C26         0.7498   -6.2510    2.0068 C.ar      1 <0>        -0.0654
     34 C27         0.1688   -6.7346    0.8360 C.ar      1 <0>        -0.0589
     35 C28        -0.9468   -6.0930    0.3014 C.ar      1 <0>        -0.0918
     36 C29        -1.4732   -4.9863    0.9360 C.ar      1 <0>        -0.1275
     37 C30         0.7361   -7.9276    0.1612 C.ar      1 <0>         0.1169
     38 C31         0.1582   -8.4101   -1.0158 C.ar      1 <0>        -0.1159
     39 C32         0.7271   -9.5278   -1.6070 C.ar      1 <0>        -0.1126
     40 C33         1.8337  -10.0979   -0.9948 C.ar      1 <0>         0.0324
     41 N1          2.3155   -9.5769    0.1177 N.ar      1 <0>        -0.2362
     42 N2          1.7989   -8.5394    0.6691 N.ar      1 <0>        -0.2376
     43 H6          2.7880    1.5373    1.5548 H         1 <0>         0.0569
     44 H7          1.7595    2.0775    0.2063 H         1 <0>         0.0590
     45 H8          1.0686    1.9008    1.8372 H         1 <0>         0.0589
     46 H9         -0.4384    0.9520    0.1596 H         1 <0>         0.0711
     47 H10        -0.0137   -0.5541   -0.7071 H         1 <0>         0.0683
     48 H11        -3.1981   -0.0444    0.7414 H         1 <0>         0.0690
     49 H12        -2.6014   -0.4873   -0.8704 H         1 <0>         0.0773
     50 H13        -5.0200   -1.0146   -0.5891 H         1 <0>         0.0857
     51 H14        -4.0511   -2.4845   -0.8774 H         1 <0>         0.0882
     52 H15        -6.7621   -1.8591    0.7995 H         1 <0>         0.1348
     53 H16        -5.0953   -2.0695    4.3324 H         1 <0>         0.0992
     54 H17        -5.8504   -3.6631    4.5637 H         1 <0>         0.0951
     55 H18        -3.3855   -3.7365    3.9356 H         1 <0>         0.0936
     56 H19        -4.4564   -4.6532    2.8453 H         1 <0>         0.0822
     57 H20        -0.7064   -1.5453    3.8066 H         1 <0>         0.0729
     58 H21         0.4408   -2.9114    3.7345 H         1 <0>         0.0733
     59 H22         3.5978   -0.1013    3.6898 H         1 <0>         0.1213
     60 H23         5.4040   -1.4964    1.5384 H         1 <0>         0.1000
     61 H24         5.9477   -0.2070    2.7398 H         1 <0>         0.1036
     62 H25         5.2883   -1.7220    4.6643 H         1 <0>         0.1030
     63 H26         4.7446   -3.0114    3.4629 H         1 <0>         0.1041
     64 H27         1.2852   -2.5143    0.1616 H         1 <0>         0.0482
     65 H28         1.1976   -3.6815    1.5025 H         1 <0>         0.0841
     66 H29        -0.2503   -3.3374    0.5262 H         1 <0>         0.0680
     67 H30         0.6676   -4.7647    3.5375 H         1 <0>         0.1269
     68 H31         1.6147   -6.7441    2.4252 H         1 <0>         0.1352
     69 H32        -1.4008   -6.4633   -0.6059 H         1 <0>         0.1242
     70 H33        -2.3402   -4.4907    0.5248 H         1 <0>         0.1281
     71 H34        -0.7047   -7.9279   -1.4511 H         1 <0>         0.1509
     72 H35         0.3203   -9.9427   -2.5174 H         1 <0>         0.1530
     73 H36         2.3012  -10.9693   -1.4289 H         1 <0>         0.1739
@<TRIPOS>BOND
     1    1    2 1
     2    1   43 1
     3    1   44 1
     4    1   45 1
     5    2    3 1
     6    2   23 1
     7    2    4 1
     8    4    5 1
     9    4   46 1
    10    4   47 1
    11    5    6 1
    12    5   22 1
    13    5    7 1
    14    7    8 1
    15    7   18 1
    16    7    9 1
    17    9   10 1
    18    9   48 1
    19    9   49 1
    20   10   11 1
    21   10   50 1
    22   10   51 1
    23   11   17 1
    24   11   12 2
    25   12   13 1
    26   12   52 1
    27   13   14 2
    28   13   15 1
    29   15   16 1
    30   15   53 1
    31   15   54 1
    32   16   17 1
    33   16   55 1
    34   16   56 1
    35   17   18 2
    36   18   19 1
    37   19   20 1
    38   19   21 1
    39   19   31 1
    40   21   22 1
    41   21   57 1
    42   21   58 1
    43   22   23 1
    44   22   30 1
    45   23   24 1
    46   23   25 1
    47   25   26 2
    48   25   27 1
    49   27   29 1
    50   27   28 1
    51   27   59 1
    52   28   29 1
    53   28   60 1
    54   28   61 1
    55   29   62 1
    56   29   63 1
    57   30   64 1
    58   30   65 1
    59   30   66 1
    60   31   36 ar
    61   31   32 ar
    62   32   33 ar
    63   32   67 1
    64   33   34 ar
    65   33   68 1
    66   34   35 ar
    67   34   37 1
    68   35   36 ar
    69   35   69 1
    70   36   70 1
    71   37   42 ar
    72   37   38 ar
    73   38   39 ar
    74   38   71 1
    75   39   40 ar
    76   39   72 1
    77   40   41 ar
    78   40   73 1
    79   41   42 ar
@<TRIPOS>MOLECULE
CHEMBL1163630
   41    43     0     0     0
SMALL
USER_CHARGES

@<TRIPOS>ATOM
      1 C1         -0.0162    1.3409    0.0094 C.2       1 <0>        -0.2126
      2 C2          1.3313    1.7689   -0.0012 C.2       1 <0>        -0.1910
      3 C3          2.0923    0.6599   -0.0144 C.2       1 <0>        -0.0437
      4 O1          1.2819   -0.4111   -0.0124 O.3       1 <0>        -0.1665
      5 C4          0.0021   -0.0041    0.0020 C.2       1 <0>        -0.0312
      6 C5          3.5989    0.6249   -0.0294 C.3       1 <0>         0.2441
      7 C6          4.0889    0.3700   -1.4562 C.3       1 <0>        -0.1776
      8 C7          5.5929    0.4570   -1.4939 C.2       1 <0>         0.3970
      9 O2          6.2118    0.6989   -0.4795 O.2       1 <0>        -0.4314
     10 C8          6.3102    0.2483   -2.7610 C.ar      1 <0>        -0.1702
     11 C9          5.5991   -0.0253   -3.9343 C.ar      1 <0>        -0.0609
     12 C10         6.2777   -0.2192   -5.1179 C.ar      1 <0>        -0.1226
     13 C11         7.6611   -0.1442   -5.1476 C.ar      1 <0>        -0.0034
     14 C12         8.3720    0.1264   -3.9894 C.ar      1 <0>        -0.1218
     15 C13         7.7063    0.3282   -2.7997 C.ar      1 <0>        -0.0454
     16 Cl1         8.5076   -0.3910   -6.6430 Cl        1 <0>        -0.0548
     17 N1          4.0712   -0.4487    0.8483 N.pl3     1 <0>        -0.7149
     18 C14         4.2237   -0.2157    2.2170 C.ar      1 <0>         0.2762
     19 C15         3.9224    1.0318    2.7485 C.ar      1 <0>        -0.1932
     20 C16         4.0739    1.2587    4.1024 C.ar      1 <0>        -0.0035
     21 C17         4.5249    0.2457    4.9286 C.ar      1 <0>        -0.1105
     22 C18         4.8257   -0.9974    4.4027 C.ar      1 <0>        -0.0047
     23 C19         4.6715   -1.2327    3.0506 C.ar      1 <0>        -0.1916
     24 N2          4.6864    0.4926    6.3789 N.pl3     1 <0>         0.0451
     25 O3          4.4242    1.5790    6.8400 O.2       1 <0>        -0.1735
     26 O4          5.0806   -0.3921    7.1025 O.3       1 <0>        -0.1736
     27 H1         -0.8920    1.9726    0.0252 H         1 <0>         0.1513
     28 H2          1.6822    2.7903    0.0004 H         1 <0>         0.1507
     29 H3         -0.8653   -0.6475    0.0072 H         1 <0>         0.2044
     30 H4          3.9880    1.5801    0.3232 H         1 <0>         0.1213
     31 H5          3.7742   -0.6232   -1.7764 H         1 <0>         0.1145
     32 H6          3.6648    1.1188   -2.1252 H         1 <0>         0.1255
     33 H7          4.5209   -0.0847   -3.9124 H         1 <0>         0.1422
     34 H8          5.7301   -0.4305   -6.0245 H         1 <0>         0.1428
     35 H9          9.4500    0.1830   -4.0199 H         1 <0>         0.1427
     36 H10         8.2614    0.5431   -1.8985 H         1 <0>         0.1446
     37 H11         4.2781   -1.3215    0.4789 H         1 <0>         0.4082
     38 H12         3.5705    1.8235    2.1037 H         1 <0>         0.1410
     39 H13         3.8402    2.2285    4.5162 H         1 <0>         0.1514
     40 H14         5.1780   -1.7863    5.0507 H         1 <0>         0.1521
     41 H15         4.9026   -2.2049    2.6412 H         1 <0>         0.1433
@<TRIPOS>BOND
     1    1    5 2
     2    1    2 1
     3    1   27 1
     4    2    3 2
     5    2   28 1
     6    3    4 1
     7    3    6 1
     8    4    5 1
     9    5   29 1
    10    6    7 1
    11    6   17 1
    12    6   30 1
    13    7    8 1
    14    7   31 1
    15    7   32 1
    16    8    9 2
    17    8   10 1
    18   10   15 ar
    19   10   11 ar
    20   11   12 ar
    21   11   33 1
    22   12   13 ar
    23   12   34 1
    24   13   14 ar
    25   13   16 1
    26   14   15 ar
    27   14   35 1
    28   15   36 1
    29   17   18 1
    30   17   37 1
    31   18   23 ar
    32   18   19 ar
    33   19   20 ar
    34   19   38 1
    35   20   21 ar
    36   20   39 1
    37   21   22 ar
    38   21   24 1
    39   22   23 ar
    40   22   40 1
    41   23   41 1
    42   24   25 2
    43   24   26 1
@<TRIPOS>MOLECULE
CHEMBL1163630__1
   41    43     0     0     0
SMALL
USER_CHARGES

@<TRIPOS>ATOM
      1 C1         -0.0162    1.3409    0.0094 C.2       1 <0>        -0.2126
      2 C2          1.3313    1.7689   -0.0012 C.2       1 <0>        -0.1910
      3 C3          2.0923    0.6599   -0.0144 C.2       1 <0>        -0.0437
      4 O1          1.2819   -0.4111   -0.0124 O.3       1 <0>        -0.1665
      5 C4          0.0021   -0.0041    0.0020 C.2       1 <0>        -0.0312
      6 C5          3.5989    0.6249   -0.0294 C.3       1 <0>         0.2440
      7 C6          4.1169    0.3554    1.3848 C.3       1 <0>        -0.1776
      8 C7          5.6214    0.4420    1.3937 C.2       1 <0>         0.3970
      9 O2          6.2202    0.6945    0.3699 O.2       1 <0>        -0.4314
     10 C8          6.3634    0.2204    2.6442 C.ar      1 <0>        -0.1702
     11 C9          5.6762   -0.0768    3.8260 C.ar      1 <0>        -0.0608
     12 C10         6.3781   -0.2837    4.9938 C.ar      1 <0>        -0.1227
     13 C11         7.7611   -0.1976    4.9994 C.ar      1 <0>        -0.0034
     14 C12         8.4484    0.0964    3.8327 C.ar      1 <0>        -0.1218
     15 C13         7.7601    0.3001    2.6562 C.ar      1 <0>        -0.0454
     16 Cl1         8.6368   -0.4586    6.4754 Cl        1 <0>        -0.0548
     17 N1          4.0537   -0.4396   -0.9273 N.pl3     1 <0>        -0.7148
     18 C14         4.1792   -0.1924   -2.2962 C.ar      1 <0>         0.2762
     19 C15         3.8787    1.0639   -2.8072 C.ar      1 <0>        -0.1931
     20 C16         4.0044    1.3050   -4.1612 C.ar      1 <0>        -0.0036
     21 C17         4.4288    0.2975   -5.0080 C.ar      1 <0>        -0.1105
     22 C18         4.7288   -0.9542   -4.5027 C.ar      1 <0>        -0.0047
     23 C19         4.6104   -1.2006   -3.1490 C.ar      1 <0>        -0.1916
     24 N2          4.5618    0.5595   -6.4586 N.pl3     1 <0>         0.0450
     25 O3          4.2995    1.6532   -6.9020 O.2       1 <0>        -0.1734
     26 O4          4.9328   -0.3204   -7.2002 O.3       1 <0>        -0.1737
     27 H1         -0.8920    1.9726    0.0252 H         1 <0>         0.1513
     28 H2          1.6822    2.7903    0.0004 H         1 <0>         0.1507
     29 H3         -0.8653   -0.6475    0.0072 H         1 <0>         0.2044
     30 H4          3.9810    1.5837   -0.3797 H         1 <0>         0.1213
     31 H5          3.7061    1.0972    2.0697 H         1 <0>         0.1256
     32 H6          3.8085   -0.6412    1.7009 H         1 <0>         0.1145
     33 H7          4.5983   -0.1436    3.8232 H         1 <0>         0.1422
     34 H8          5.8489   -0.5133    5.9069 H         1 <0>         0.1428
     35 H9          9.5263    0.1623    3.8445 H         1 <0>         0.1427
     36 H10         8.2973    0.5251    1.7467 H         1 <0>         0.1447
     37 H11         4.2677   -1.3161   -0.5710 H         1 <0>         0.4082
     38 H12         3.5468    1.8510   -2.1464 H         1 <0>         0.1410
     39 H13         3.7705    2.2814   -4.5592 H         1 <0>         0.1514
     40 H14         5.0597   -1.7389   -5.1669 H         1 <0>         0.1521
     41 H15         4.8488   -2.1773   -2.7543 H         1 <0>         0.1433
@<TRIPOS>BOND
     1    1    5 2
     2    1    2 1
     3    1   27 1
     4    2    3 2
     5    2   28 1
     6    3    4 1
     7    3    6 1
     8    4    5 1
     9    5   29 1
    10    6    7 1
    11    6   17 1
    12    6   30 1
    13    7    8 1
    14    7   31 1
    15    7   32 1
    16    8    9 2
    17    8   10 1
    18   10   15 ar
    19   10   11 ar
    20   11   12 ar
    21   11   33 1
    22   12   13 ar
    23   12   34 1
    24   13   14 ar
    25   13   16 1
    26   14   15 ar
    27   14   35 1
    28   15   36 1
    29   17   18 1
    30   17   37 1
    31   18   23 ar
    32   18   19 ar
    33   19   20 ar
    34   19   38 1
    35   20   21 ar
    36   20   39 1
    37   21   22 ar
    38   21   24 1
    39   22   23 ar
    40   22   40 1
    41   23   41 1
    42   24   25 2
    43   24   26 1
@<TRIPOS>MOLECULE
CHEMBL350932
   37    40     0     0     0
SMALL
USER_CHARGES

@<TRIPOS>ATOM
      1 C1         -0.0164    1.3560    0.0095 C.ar      1 <0>        -0.0050
      2 C2          1.1904    2.0698    0.0018 C.ar      1 <0>        -0.1648
      3 C3          1.1977    3.4878    0.0117 C.2       1 <0>        -0.0579
      4 C4          2.3852    4.1431    0.0127 C.2       1 <0>        -0.1702
      5 C5          3.5960    3.4206    0.0046 C.2       1 <0>         0.5408
      6 N1          3.6011    2.0746   -0.0078 N.am      1 <0>        -0.6232
      7 C6          2.4136    1.3709   -0.0139 C.ar      1 <0>         0.2454
      8 C7          2.4119   -0.0159   -0.0402 C.ar      1 <0>        -0.2322
      9 C8          1.2071   -0.7100   -0.0444 C.ar      1 <0>         0.2600
     10 C9          0.0021   -0.0041    0.0020 C.ar      1 <0>        -0.1717
     11 C10        -1.1317   -1.0199    0.0773 C.3       1 <0>        -0.0449
     12 H1         -1.8425   -0.7685    0.8645 H         1 <0>         0.1013
     13 C11        -1.8069   -1.0457   -1.2942 C.3       1 <0>        -0.1085
     14 C12        -2.6801   -2.2934   -1.4199 C.3       1 <0>        -0.1216
     15 C13        -1.7726   -3.5218   -1.3971 C.3       1 <0>        -0.1164
     16 C14        -1.0080   -3.5941   -0.0910 C.3       1 <0>        -0.1184
     17 C15        -0.3889   -2.3145    0.3904 C.3       1 <0>         0.1552
     18 H2         -0.3014   -2.3693    1.4755 H         1 <0>         0.0621
     19 N2          0.9700   -2.0885   -0.1099 N.pl3     1 <0>        -0.7313
     20 O1          4.6550    4.0245    0.0084 O.2       1 <0>        -0.5237
     21 C16        -0.0981    4.2572    0.0204 C.3       1 <0>         0.5059
     22 F1          0.1744    5.6293    0.0293 F         1 <0>        -0.1683
     23 F2         -0.8387    3.9362   -1.1222 F         1 <0>        -0.1674
     24 F3         -0.8328    3.9202    1.1623 F         1 <0>        -0.1676
     25 H3         -0.9580    1.8847    0.0258 H         1 <0>         0.1347
     26 H4          2.4034    5.2229    0.0195 H         1 <0>         0.1686
     27 H5          3.3466   -0.5567   -0.0578 H         1 <0>         0.1357
     28 H6         -2.4269   -0.1566   -1.4094 H         1 <0>         0.0692
     29 H7         -1.0444   -1.0574   -2.0731 H         1 <0>         0.0658
     30 H8         -3.3790   -2.3379   -0.5845 H         1 <0>         0.0668
     31 H9         -3.2319   -2.2621   -2.3593 H         1 <0>         0.0678
     32 H10        -2.3802   -4.4199   -1.5083 H         1 <0>         0.0681
     33 H11        -1.0657   -3.4620   -2.2247 H         1 <0>         0.0610
     34 H12        -1.6910   -3.9396    0.6851 H         1 <0>         0.0761
     35 H13        -0.2186   -4.3380   -0.1989 H         1 <0>         0.0695
     36 H14         1.5883   -2.7657   -0.4260 H         1 <0>         0.4186
     37 H15         4.4448    1.5960   -0.0126 H         1 <0>         0.4206
@<TRIPOS>BOND
     1    1   10 ar
     2    1    2 ar
     3    1   25 1
     4    2    7 ar
     5    2    3 1
     6    3    4 2
     7    3   21 1
     8    4    5 1
     9    4   26 1
    10    5    6 am
    11    5   20 2
    12    6    7 1
    13    6   37 1
    14    7    8 ar
    15    8    9 ar
    16    8   27 1
    17    9   19 1
    18    9   10 ar
    19   10   11 1
    20   11   12 1
    21   11   17 1
    22   11   13 1
    23   13   14 1
    24   13   28 1
    25   13   29 1
    26   14   15 1
    27   14   30 1
    28   14   31 1
    29   15   16 1
    30   15   32 1
    31   15   33 1
    32   16   17 1
    33   16   34 1
    34   16   35 1
    35   17   18 1
    36   17   19 1
    37   19   36 1
    38   21   22 1
    39   21   23 1
    40   21   24 1
@<TRIPOS>MOLECULE
CHEMBL507701
   58    63     0     0     0
SMALL
USER_CHARGES

@<TRIPOS>ATOM
      1 C1          0.0870    1.3839    0.0191 C.3       1 <0>        -0.1224
      2 C2          0.0861   -0.1212    0.0676 C.2       1 <0>        -0.0651
      3 C3          0.0212   -0.7388   -1.1152 C.2       1 <0>        -0.1724
      4 C4          0.0256   -2.2361   -1.2211 C.3       1 <0>         0.2108
      5 N1          0.7692   -2.7957   -0.0888 N.pl3     1 <0>        -0.7335
      6 C5          0.5789   -2.2529    1.1814 C.ar      1 <0>         0.2285
      7 C6          0.1616   -0.9058    1.3100 C.ar      1 <0>        -0.0873
      8 C7         -0.1957   -0.4529    2.5723 C.ar      1 <0>        -0.0493
      9 C8          0.0470   -1.2667    3.6901 C.ar      1 <0>        -0.0944
     10 C9          0.6278   -2.5219    3.5545 C.ar      1 <0>        -0.0490
     11 C10         0.8863   -3.0144    2.2940 C.ar      1 <0>        -0.1823
     12 C11        -0.3735   -0.7868    5.0287 C.ar      1 <0>        -0.0297
     13 C12         0.1169   -1.3553    6.1973 C.ar      1 <0>        -0.1245
     14 C13        -0.3020   -0.8685    7.4235 C.ar      1 <0>         0.1119
     15 C14        -1.2038    0.1817    7.4876 C.ar      1 <0>        -0.1624
     16 C15        -1.6959    0.7543    6.3263 C.ar      1 <0>         0.1347
     17 C16        -1.2842    0.2724    5.0965 C.ar      1 <0>         0.1125
     18 O1         -1.7515    0.7956    3.9333 O.3       1 <0>        -0.2968
     19 C17        -0.8209    0.8893    2.8441 C.3       1 <0>         0.1404
     20 H1         -1.3768    1.2440    1.9860 H         1 <0>         0.1323
     21 C18         0.2651    1.8908    3.2422 C.3       1 <0>        -0.0993
     22 H2          0.9082    2.0842    2.3836 H         1 <0>         0.1068
     23 C19        -0.3921    3.1981    3.6847 C.3       1 <0>        -0.1179
     24 C20         0.6992    4.1480    4.1910 C.3       1 <0>        -0.1167
     25 C21         1.1667    3.6660    5.5644 C.3       1 <0>        -0.0963
     26 C22         1.6033    2.2046    5.4883 C.3       1 <0>         0.0061
     27 C23         1.0984    1.3050    4.3715 C.3       1 <0>         0.0072
     28 H3          1.7547    0.4854    4.0790 H         1 <0>         0.1144
     29 O2          0.5664    1.2307    5.6864 O.3       1 <0>        -0.3261
     30 C24         2.9827    1.8968    6.0742 C.3       1 <0>        -0.1296
     31 F1         -2.5747    1.7777    6.3972 F         1 <0>        -0.1274
     32 F2          0.1718   -1.4193    8.5628 F         1 <0>        -0.1361
     33 C25        -1.4118   -2.7593   -1.2018 C.3       1 <0>        -0.1585
     34 C26         0.6995   -2.6549   -2.5300 C.3       1 <0>        -0.1533
     35 H4          0.9621    1.7638    0.5464 H         1 <0>         0.0709
     36 H5          0.1168    1.7140   -1.0193 H         1 <0>         0.0721
     37 H6         -0.8172    1.7633    0.4952 H         1 <0>         0.0712
     38 H7         -0.0340   -0.1374   -2.0107 H         1 <0>         0.1255
     39 H8          1.3872   -3.5353   -0.2204 H         1 <0>         0.4037
     40 H9          0.8727   -3.1064    4.4282 H         1 <0>         0.1313
     41 H10         1.3275   -3.9936    2.1715 H         1 <0>         0.1294
     42 H11         0.8234   -2.1705    6.1536 H         1 <0>         0.1383
     43 H12        -1.5253    0.5560    8.4479 H         1 <0>         0.1460
     44 H13        -0.9089    3.6522    2.8392 H         1 <0>         0.0722
     45 H14        -1.1030    2.9973    4.4861 H         1 <0>         0.0785
     46 H15         1.5391    4.1438    3.4963 H         1 <0>         0.0676
     47 H16         0.2957    5.1571    4.2752 H         1 <0>         0.0721
     48 H17         2.0064    4.2772    5.8952 H         1 <0>         0.0776
     49 H18         0.3490    3.7621    6.2787 H         1 <0>         0.0745
     50 H19         3.1646    2.5419    6.9337 H         1 <0>         0.0680
     51 H20         3.0194    0.8537    6.3885 H         1 <0>         0.0654
     52 H21         3.7469    2.0754    5.3177 H         1 <0>         0.0714
     53 H22        -1.9626   -2.3394   -2.0435 H         1 <0>         0.0674
     54 H23        -1.4038   -3.8465   -1.2789 H         1 <0>         0.0607
     55 H24        -1.8932   -2.4647   -0.2693 H         1 <0>         0.0578
     56 H25         1.7255   -2.2873   -2.5443 H         1 <0>         0.0636
     57 H26         0.7020   -3.7423   -2.6057 H         1 <0>         0.0641
     58 H27         0.1507   -2.2334   -3.3722 H         1 <0>         0.0754
@<TRIPOS>BOND
     1    1    2 1
     2    1   35 1
     3    1   36 1
     4    1   37 1
     5    2    7 1
     6    2    3 2
     7    3    4 1
     8    3   38 1
     9    4    5 1
    10    4   33 1
    11    4   34 1
    12    5    6 1
    13    5   39 1
    14    6   11 ar
    15    6    7 ar
    16    7    8 ar
    17    8   19 1
    18    8    9 ar
    19    9   10 ar
    20    9   12 1
    21   10   11 ar
    22   10   40 1
    23   11   41 1
    24   12   17 ar
    25   12   13 ar
    26   13   14 ar
    27   13   42 1
    28   14   15 ar
    29   14   32 1
    30   15   16 ar
    31   15   43 1
    32   16   17 ar
    33   16   31 1
    34   17   18 1
    35   18   19 1
    36   19   20 1
    37   19   21 1
    38   21   22 1
    39   21   27 1
    40   21   23 1
    41   23   24 1
    42   23   44 1
    43   23   45 1
    44   24   25 1
    45   24   46 1
    46   24   47 1
    47   25   26 1
    48   25   48 1
    49   25   49 1
    50   26   29 1
    51   26   27 1
    52   26   30 1
    53   27   28 1
    54   27   29 1
    55   30   50 1
    56   30   51 1
    57   30   52 1
    58   33   53 1
    59   33   54 1
    60   33   55 1
    61   34   56 1
    62   34   57 1
    63   34   58 1
@<TRIPOS>MOLECULE
CHEMBL164139
   36    38     0     0     0
SMALL
USER_CHARGES

@<TRIPOS>ATOM
      1 C1         -0.0187    1.5258    0.0104 C.3       1 <0>        -0.1911
      2 C2          0.0021   -0.0041    0.0020 C.3       1 <0>         0.3272
      3 N1         -1.3740   -0.5235   -0.0301 N.pl3     1 <0>        -0.7698
      4 C3         -2.1169   -0.4059    1.1522 C.ar      1 <0>         0.2084
      5 C4         -3.4976   -0.2923    1.1092 C.ar      1 <0>        -0.1688
      6 C5         -4.2128   -0.1730    2.2832 C.ar      1 <0>        -0.0696
      7 C6         -3.5393   -0.1682    3.5028 C.ar      1 <0>        -0.0722
      8 C7         -2.1510   -0.2851    3.5379 C.ar      1 <0>        -0.0594
      9 C8         -1.4339   -0.4041    2.3624 C.ar      1 <0>        -0.1609
     10 C9          0.0631   -0.5395    2.4062 C.3       1 <0>         0.1778
     11 O1          0.6786   -0.5209    1.1338 O.3       1 <0>        -0.3846
     12 C10         0.6449    0.5890    3.2706 C.3       1 <0>        -0.1640
     13 C11         0.4039   -1.8762    3.0913 C.3       1 <0>        -0.1425
     14 C12        -4.3019   -0.0382    4.7697 C.2       1 <0>        -0.0890
     15 C13        -5.6827    0.0741    4.7593 C.2       1 <0>        -0.0668
     16 C14        -6.2875    0.1897    5.9974 C.2       1 <0>        -0.1590
     17 S1         -4.8941    0.1352    7.1068 S.3       1 <0>         0.2762
     18 C15        -3.6562   -0.0318    5.9842 C.2       1 <0>        -0.2324
     19 C16        -7.6791    0.3200    6.3088 C.1       1 <0>         0.2925
     20 N2         -8.7831    0.4235    6.5558 N.1       1 <0>        -0.3954
     21 H1          1.0039    1.9031    0.0027 H         1 <0>         0.0743
     22 H2         -0.5459    1.8869   -0.8726 H         1 <0>         0.0708
     23 H3         -0.5289    1.8773    0.9072 H         1 <0>         0.0604
     24 H4          0.5167   -0.3368   -0.9126 H         1 <0>         0.1148
     25 H5         -1.7465   -0.9265   -0.8260 H         1 <0>         0.4091
     26 H6         -4.0152   -0.2971    0.1613 H         1 <0>         0.1268
     27 H7         -5.2881   -0.0838    2.2570 H         1 <0>         0.1268
     28 H8         -1.6461   -0.2862    4.4926 H         1 <0>         0.1249
     29 H9          0.2407    0.5184    4.2804 H         1 <0>         0.0672
     30 H10         1.7304    0.4964    3.3064 H         1 <0>         0.0679
     31 H11         0.3765    1.5529    2.8384 H         1 <0>         0.0582
     32 H12        -0.0306   -2.6976    2.5216 H         1 <0>         0.0599
     33 H13         1.4863   -1.9967    3.1346 H         1 <0>         0.0670
     34 H14        -0.0029   -1.8803    4.1025 H         1 <0>         0.0697
     35 H15        -6.2514    0.0718    3.8411 H         1 <0>         0.1517
     36 H16        -2.5959   -0.1138    6.1726 H         1 <0>         0.1940
@<TRIPOS>BOND
     1    1    2 1
     2    1   21 1
     3    1   22 1
     4    1   23 1
     5    2   11 1
     6    2    3 1
     7    2   24 1
     8    3    4 1
     9    3   25 1
    10    4    9 ar
    11    4    5 ar
    12    5    6 ar
    13    5   26 1
    14    6    7 ar
    15    6   27 1
    16    7    8 ar
    17    7   14 1
    18    8    9 ar
    19    8   28 1
    20    9   10 1
    21   10   11 1
    22   10   12 1
    23   10   13 1
    24   12   29 1
    25   12   30 1
    26   12   31 1
    27   13   32 1
    28   13   33 1
    29   13   34 1
    30   14   18 2
    31   14   15 1
    32   15   16 2
    33   15   35 1
    34   16   17 1
    35   16   19 1
    36   17   18 1
    37   18   36 1
    38   19   20 3
@<TRIPOS>MOLECULE
CHEMBL164139__1
   36    38     0     0     0
SMALL
USER_CHARGES

@<TRIPOS>ATOM
      1 C1         -0.0187    1.5258    0.0104 C.3       1 <0>        -0.1562
      2 C2          0.0021   -0.0041    0.0020 C.3       1 <0>         0.3093
      3 N1          0.7225   -0.4858   -1.1871 N.pl3     1 <0>        -0.7610
      4 C3          1.1716   -1.8131   -1.1895 C.ar      1 <0>         0.2221
      5 C4          1.6078   -2.3975   -2.3713 C.ar      1 <0>        -0.1818
      6 C5          2.0531   -3.7030   -2.3712 C.ar      1 <0>        -0.0624
      7 C6          2.0640   -4.4323   -1.1835 C.ar      1 <0>        -0.0821
      8 C7          1.6241   -3.8434   -0.0004 C.ar      1 <0>        -0.0529
      9 C8          1.1771   -2.5370   -0.0037 C.ar      1 <0>        -0.1755
     10 C9          0.6946   -1.9095    1.2780 C.3       1 <0>         0.1617
     11 O1          0.6940   -0.4861    1.1608 O.3       1 <0>        -0.3728
     12 C10         1.6195   -2.3233    2.4245 C.3       1 <0>        -0.1359
     13 C11        -0.7256   -2.3942    1.5764 C.3       1 <0>        -0.1721
     14 C12         2.5440   -5.8370   -1.1796 C.2       1 <0>        -0.0856
     15 C13         2.9899   -6.4385   -2.3451 C.2       1 <0>        -0.0672
     16 C14         3.4134   -7.7492   -2.2231 C.2       1 <0>        -0.1593
     17 S1          3.1652   -8.0681   -0.4876 S.3       1 <0>         0.2736
     18 C15         2.5627   -6.5726   -0.0175 C.2       1 <0>        -0.2338
     19 C16         3.9219   -8.6268   -3.2340 C.1       1 <0>         0.2929
     20 N2          4.3253   -9.3230   -4.0359 N.1       1 <0>        -0.3962
     21 H1          1.0039    1.9031    0.0027 H         1 <0>         0.0717
     22 H2         -0.5459    1.8868   -0.8726 H         1 <0>         0.0777
     23 H3         -0.5289    1.8773    0.9072 H         1 <0>         0.0815
     24 H4         -1.0185   -0.3867   -0.0039 H         1 <0>         0.0691
     25 H5          0.8814    0.0973   -1.9458 H         1 <0>         0.4068
     26 H6          1.5981   -1.8301   -3.2902 H         1 <0>         0.1254
     27 H7          2.3923   -4.1591   -3.2895 H         1 <0>         0.1260
     28 H8          1.6326   -4.4087    0.9198 H         1 <0>         0.1257
     29 H9          2.6340   -1.9857    2.2128 H         1 <0>         0.0662
     30 H10         1.2721   -1.8703    3.3530 H         1 <0>         0.0683
     31 H11         1.6111   -3.4087    2.5244 H         1 <0>         0.0740
     32 H12        -0.7250   -3.4793    1.6795 H         1 <0>         0.0712
     33 H13        -1.0767   -1.9413    2.5036 H         1 <0>         0.0693
     34 H14        -1.3867   -2.1073    0.7587 H         1 <0>         0.0575
     35 H15         3.0055   -5.9164   -3.2904 H         1 <0>         0.1514
     36 H16         2.2584   -6.2604    0.9706 H         1 <0>         0.1935
@<TRIPOS>BOND
     1    1    2 1
     2    1   21 1
     3    1   22 1
     4    1   23 1
     5    2   11 1
     6    2    3 1
     7    2   24 1
     8    3    4 1
     9    3   25 1
    10    4    9 ar
    11    4    5 ar
    12    5    6 ar
    13    5   26 1
    14    6    7 ar
    15    6   27 1
    16    7    8 ar
    17    7   14 1
    18    8    9 ar
    19    8   28 1
    20    9   10 1
    21   10   11 1
    22   10   12 1
    23   10   13 1
    24   12   29 1
    25   12   30 1
    26   12   31 1
    27   13   32 1
    28   13   33 1
    29   13   34 1
    30   14   18 2
    31   14   15 1
    32   15   16 2
    33   15   35 1
    34   16   17 1
    35   16   19 1
    36   17   18 1
    37   18   36 1
    38   19   20 3
@<TRIPOS>MOLECULE
CHEMBL336736
   54    58     0     0     0
SMALL
USER_CHARGES

@<TRIPOS>ATOM
      1 C1         -0.5779    1.2854   -0.0376 C.3       1 <0>        -0.1204
      2 C2          0.0154   -0.0992    0.0043 C.ar      1 <0>        -0.0683
      3 C3          0.2827   -0.7726   -1.1690 C.ar      1 <0>        -0.1257
      4 C4          0.8276   -2.0442   -1.1326 C.ar      1 <0>        -0.1084
      5 C5          1.1085   -2.6505    0.0798 C.ar      1 <0>        -0.1307
      6 C6          0.8471   -1.9906    1.2616 C.ar      1 <0>        -0.0925
      7 C7          0.3018   -0.7025    1.2333 C.ar      1 <0>        -0.0606
      8 C8          0.0250    0.0109    2.4894 C.2       1 <0>        -0.0941
      9 C9         -0.0564   -0.6715    3.6475 C.2       1 <0>         0.1037
     10 C10        -0.1030   -0.1200    4.9282 C.ar      1 <0>        -0.0259
     11 C11        -1.0878   -0.6961    5.7669 C.ar      1 <0>        -0.0968
     12 C12        -1.5739   -0.0011    6.8504 C.ar      1 <0>        -0.0533
     13 C13        -1.0897    1.2205    7.2179 C.ar      1 <0>        -0.1706
     14 C14         0.0806    1.6936    6.5973 C.ar      1 <0>         0.2272
     15 C15         0.6482    0.9826    5.4822 C.ar      1 <0>        -0.0971
     16 C16         1.9686    1.3838    5.0096 C.2       1 <0>        -0.0600
     17 C17         2.5338    2.4902    5.4611 C.2       1 <0>        -0.1749
     18 C18         1.9321    3.3516    6.4614 C.3       1 <0>         0.2275
     19 N1          0.6762    2.8929    6.9006 N.pl3     1 <0>        -0.7074
     20 C19         1.8471    4.7944    5.9397 C.3       1 <0>        -0.1576
     21 C20         2.9136    3.4605    7.7010 C.3       1 <0>        -0.1725
     22 C21         2.7380    0.5101    3.9465 C.3       1 <0>        -0.1079
     23 C22        -1.5890   -2.0884    5.3833 C.ar      1 <0>        -0.1033
     24 C23        -2.5940   -2.6419    6.1362 C.ar      1 <0>        -0.1066
     25 C24        -2.9813   -3.9655    5.7906 C.ar      1 <0>         0.0685
     26 C25        -2.3572   -4.6172    4.6740 C.ar      1 <0>        -0.1175
     27 C26        -1.3813   -3.9897    3.9666 C.ar      1 <0>        -0.1217
     28 C27        -0.9159   -2.7165    4.2720 C.ar      1 <0>         0.1306
     29 O1         -0.0356   -2.0474    3.6132 O.3       1 <0>        -0.2273
     30 F1         -3.9461   -4.5480    6.4460 F         1 <0>        -0.1213
     31 H1          0.2238    2.0234   -0.0694 H         1 <0>         0.0731
     32 H2         -1.2008    1.3871   -0.9262 H         1 <0>         0.0693
     33 H3         -1.1856    1.4474    0.8526 H         1 <0>         0.0676
     34 H4          0.0660   -0.3066   -2.1188 H         1 <0>         0.1228
     35 H5          1.0343   -2.5666   -2.0550 H         1 <0>         0.1217
     36 H6          1.5333   -3.6432    0.0998 H         1 <0>         0.1226
     37 H7          1.0663   -2.4652    2.2066 H         1 <0>         0.1419
     38 H8         -0.1130    1.0821    2.4830 H         1 <0>         0.1476
     39 H9         -2.4198   -0.3901    7.3931 H         1 <0>         0.1255
     40 H10        -1.5019    1.7937    8.0297 H         1 <0>         0.1346
     41 H11         3.5806    2.7116    5.0126 H         1 <0>         0.1357
     42 H12         0.1854    3.4802    7.6129 H         1 <0>         0.4053
     43 H13         1.2382    4.8186    5.0360 H         1 <0>         0.0580
     44 H14         1.3937    5.4297    6.7005 H         1 <0>         0.0609
     45 H15         2.8491    5.1582    5.7126 H         1 <0>         0.0716
     46 H16         3.8647    3.8819    7.3754 H         1 <0>         0.0674
     47 H17         2.4709    4.1062    8.4594 H         1 <0>         0.0591
     48 H18         3.0804    2.4685    8.1207 H         1 <0>         0.0535
     49 H19         2.4800    0.8484    2.9430 H         1 <0>         0.0716
     50 H20         3.8122    0.6139    4.0999 H         1 <0>         0.0655
     51 H21         2.4540   -0.5359    4.0617 H         1 <0>         0.0656
     52 H22        -3.0354   -2.1568    6.9413 H         1 <0>         0.1416
     53 H23        -2.6635   -5.6207    4.3601 H         1 <0>         0.1485
     54 H24        -0.8781   -4.4454    3.1277 H         1 <0>         0.1338
@<TRIPOS>BOND
     1    1    2 1
     2    1   31 1
     3    1   32 1
     4    1   33 1
     5    2    7 ar
     6    2    3 ar
     7    3    4 ar
     8    3   34 1
     9    4    5 ar
    10    4   35 1
    11    5    6 ar
    12    5   36 1
    13    6    7 ar
    14    6   37 1
    15    7    8 1
    16    8    9 2
    17    8   38 1
    18    9   29 1
    19    9   10 1
    20   10   15 ar
    21   10   11 ar
    22   11   12 ar
    23   11   23 1
    24   12   13 ar
    25   12   39 1
    26   13   14 ar
    27   13   40 1
    28   14   19 1
    29   14   15 ar
    30   15   16 1
    31   16   17 2
    32   16   22 1
    33   17   18 1
    34   17   41 1
    35   18   19 1
    36   18   20 1
    37   18   21 1
    38   19   42 1
    39   20   43 1
    40   20   44 1
    41   20   45 1
    42   21   46 1
    43   21   47 1
    44   21   48 1
    45   22   49 1
    46   22   50 1
    47   22   51 1
    48   23   28 ar
    49   23   24 ar
    50   24   25 ar
    51   24   52 1
    52   25   26 ar
    53   25   30 1
    54   26   27 ar
    55   26   53 1
    56   27   28 ar
    57   27   54 1
    58   28   29 1
@<TRIPOS>MOLECULE
CHEMBL350283
   34    35     0     0     0
SMALL
USER_CHARGES

@<TRIPOS>ATOM
      1 C1          0.0369    1.5805   -0.1012 C.3       1 <0>        -0.1917
      2 C2          0.0178    0.0512   -0.0600 C.3       1 <0>         0.1779
      3 C3          0.8623   -0.4378    1.1183 C.3       1 <0>        -0.1879
      4 C4         -1.4010   -0.4292    0.1053 C.ar      1 <0>        -0.1548
      5 C5         -1.9535   -1.2799   -0.8285 C.ar      1 <0>        -0.0309
      6 C6         -3.2658   -1.7239   -0.6751 C.ar      1 <0>        -0.1142
      7 C7         -4.0171   -1.3066    0.4228 C.ar      1 <0>        -0.0551
      8 C8         -3.4610   -0.4561    1.3540 C.ar      1 <0>        -0.1951
      9 C9         -2.1499   -0.0189    1.2021 C.ar      1 <0>         0.2328
     10 N1         -1.5866    0.8373    2.1495 N.pl3     1 <0>        -0.8797
     11 C10        -3.8625   -2.6388   -1.6789 C.ar      1 <0>        -0.0119
     12 C11        -3.1110   -3.0611   -2.7743 C.ar      1 <0>        -0.1152
     13 C12        -3.6705   -3.9122   -3.7053 C.ar      1 <0>        -0.1001
     14 C13        -4.9751   -4.3464   -3.5539 C.ar      1 <0>        -0.1196
     15 C14        -5.7265   -3.9306   -2.4683 C.ar      1 <0>        -0.0281
     16 C15        -5.1741   -3.0836   -1.5270 C.ar      1 <0>        -0.1137
     17 Cl1        -7.3633   -4.4796   -2.2858 Cl        1 <0>        -0.0709
     18 O1          0.5564   -0.4649   -1.2788 O.3       1 <0>        -0.5550
     19 H1          1.0689    1.9312   -0.0997 H         1 <0>         0.0628
     20 H2         -0.4629    1.9259   -1.0062 H         1 <0>         0.0694
     21 H3         -0.4818    1.9740    0.7731 H         1 <0>         0.0755
     22 H4          0.3806   -0.1529    2.0537 H         1 <0>         0.0701
     23 H5          0.9551   -1.5230    1.0733 H         1 <0>         0.0705
     24 H6          1.8530    0.0139    1.0675 H         1 <0>         0.0642
     25 H7         -1.3700   -1.6017   -1.6784 H         1 <0>         0.1368
     26 H8         -5.0342   -1.6492    0.5433 H         1 <0>         0.1259
     27 H9         -4.0427   -0.1323    2.2044 H         1 <0>         0.1261
     28 H10        -0.6465    1.0699    2.0949 H         1 <0>         0.4015
     29 H11        -2.1353    1.1999    2.8625 H         1 <0>         0.3976
     30 H12        -2.0925   -2.7225   -2.8943 H         1 <0>         0.1323
     31 H13        -3.0887   -4.2397   -4.5543 H         1 <0>         0.1335
     32 H14        -5.4091   -5.0119   -4.2855 H         1 <0>         0.1326
     33 H15        -5.7593   -2.7630   -0.6778 H         1 <0>         0.1342
     34 H16         1.4691   -0.1955   -1.4507 H         1 <0>         0.3803
@<TRIPOS>BOND
     1    1    2 1
     2    1   19 1
     3    1   20 1
     4    1   21 1
     5    2    3 1
     6    2    4 1
     7    2   18 1
     8    3   22 1
     9    3   23 1
    10    3   24 1
    11    4    9 ar
    12    4    5 ar
    13    5    6 ar
    14    5   25 1
    15    6    7 ar
    16    6   11 1
    17    7    8 ar
    18    7   26 1
    19    8    9 ar
    20    8   27 1
    21    9   10 1
    22   10   28 1
    23   10   29 1
    24   11   16 ar
    25   11   12 ar
    26   12   13 ar
    27   12   30 1
    28   13   14 ar
    29   13   31 1
    30   14   15 ar
    31   14   32 1
    32   15   16 ar
    33   15   17 1
    34   16   33 1
    35   18   34 1
@<TRIPOS>MOLECULE
CHEMBL568062
   41    43     0     0     0
SMALL
USER_CHARGES

@<TRIPOS>ATOM
      1 C1         -0.3715   -0.2384   -0.4478 C.3       1 <0>        -0.1362
      2 C2         -0.1741   -1.6782    0.0306 C.3       1 <0>        -0.0245
      3 C3         -1.5362   -2.3240    0.3619 C.3       1 <0>        -0.1012
      4 C4         -1.6842   -2.0312    1.8699 C.3       1 <0>         0.1713
      5 C5         -0.2680   -1.9013    2.3896 C.ar      1 <0>        -0.1239
      6 C6          0.6007   -1.6981    1.3312 C.ar      1 <0>        -0.0593
      7 C7          1.9542   -1.5503    1.5668 C.ar      1 <0>        -0.0816
      8 C8          2.4475   -1.6057    2.8705 C.ar      1 <0>        -0.0150
      9 C9          1.5664   -1.8110    3.9335 C.ar      1 <0>        -0.1292
     10 C10         0.2182   -1.9573    3.6867 C.ar      1 <0>        -0.0900
     11 C11         3.8948   -1.4484    3.1248 C.2       1 <0>         0.0932
     12 C12         4.9016   -1.6525    2.2071 C.2       1 <0>        -0.1772
     13 C13         6.1145   -1.3980    2.8467 C.2       1 <0>        -0.1078
     14 C14         5.8288   -1.0412    4.1495 C.2       1 <0>         0.0546
     15 N1          4.4625   -1.0700    4.3085 N.pl3     1 <0>        -0.4146
     16 C15         3.7380   -0.7511    5.5412 C.3       1 <0>         0.0567
     17 C16         6.7864   -0.6969    5.1570 C.1       1 <0>         0.2772
     18 N2          7.5460   -0.4237    5.9563 N.1       1 <0>        -0.4039
     19 C17        -2.4015   -3.1888    2.5674 C.3       1 <0>        -0.1760
     20 O1         -2.3998   -0.8106    2.0700 O.3       1 <0>        -0.5462
     21 C18         0.5578   -2.4955   -1.0358 C.3       1 <0>        -0.1419
     22 H1          0.6003    0.2202   -0.6303 H         1 <0>         0.0558
     23 H2         -0.9523   -0.2385   -1.3702 H         1 <0>         0.0606
     24 H3         -0.9032    0.3286    0.3163 H         1 <0>         0.0665
     25 H4         -2.3375   -1.8503   -0.2052 H         1 <0>         0.0902
     26 H5         -1.5112   -3.3978    0.1763 H         1 <0>         0.0878
     27 H6          2.6312   -1.3921    0.7403 H         1 <0>         0.1299
     28 H7          1.9398   -1.8557    4.9459 H         1 <0>         0.1285
     29 H8         -0.4637   -2.1161    4.5090 H         1 <0>         0.1229
     30 H9          4.7747   -1.9556    1.1783 H         1 <0>         0.1526
     31 H10         7.0972   -1.4674    2.4041 H         1 <0>         0.1545
     32 H11         3.5234   -1.6711    6.0849 H         1 <0>         0.0853
     33 H12         4.3488   -0.0960    6.1625 H         1 <0>         0.0877
     34 H13         2.8029   -0.2488    5.2935 H         1 <0>         0.0979
     35 H14        -1.8249   -4.1046    2.4376 H         1 <0>         0.0692
     36 H15        -2.4988   -2.9682    3.6304 H         1 <0>         0.0599
     37 H16        -3.3920   -3.3182    2.1311 H         1 <0>         0.0690
     38 H17        -2.5235   -0.5751    2.9997 H         1 <0>         0.3765
     39 H18         1.5273   -2.0411   -1.2399 H         1 <0>         0.0601
     40 H19         0.7025   -3.5145   -0.6770 H         1 <0>         0.0585
     41 H20        -0.0349   -2.5131   -1.9504 H         1 <0>         0.0622
@<TRIPOS>BOND
     1    1    2 1
     2    1   22 1
     3    1   23 1
     4    1   24 1
     5    2    6 1
     6    2    3 1
     7    2   21 1
     8    3    4 1
     9    3   25 1
    10    3   26 1
    11    4    5 1
    12    4   19 1
    13    4   20 1
    14    5   10 ar
    15    5    6 ar
    16    6    7 ar
    17    7    8 ar
    18    7   27 1
    19    8    9 ar
    20    8   11 1
    21    9   10 ar
    22    9   28 1
    23   10   29 1
    24   11   15 1
    25   11   12 2
    26   12   13 1
    27   12   30 1
    28   13   14 2
    29   13   31 1
    30   14   15 1
    31   14   17 1
    32   15   16 1
    33   16   32 1
    34   16   33 1
    35   16   34 1
    36   17   18 3
    37   19   35 1
    38   19   36 1
    39   19   37 1
    40   20   38 1
    41   21   39 1
    42   21   40 1
    43   21   41 1
@<TRIPOS>MOLECULE
CHEMBL568062__1
   41    43     0     0     0
SMALL
USER_CHARGES

@<TRIPOS>ATOM
      1 C1          0.3331    2.0450    0.1453 C.3       1 <0>        -0.1410
      2 C2          0.0446    0.5473    0.0253 C.3       1 <0>        -0.0241
      3 C3          0.8385   -0.0584   -1.1515 C.3       1 <0>        -0.0987
      4 C4          1.1779   -1.4709   -0.6307 C.3       1 <0>         0.1700
      5 C5          1.1922   -1.3446    0.8782 C.ar      1 <0>        -0.1172
      6 C6          0.5399   -0.1833    1.2553 C.ar      1 <0>        -0.0681
      7 C7          0.4281    0.1429    2.5934 C.ar      1 <0>        -0.0781
      8 C8          0.9719   -0.6965    3.5660 C.ar      1 <0>        -0.0184
      9 C9          1.6285   -1.8660    3.1791 C.ar      1 <0>        -0.1256
     10 C10         1.7343   -2.1812    1.8415 C.ar      1 <0>        -0.0922
     11 C11         0.8539   -0.3493    4.9976 C.2       1 <0>         0.0940
     12 C12         0.6133    0.9084    5.5052 C.2       1 <0>        -0.1775
     13 C13         0.5757    0.8031    6.8953 C.2       1 <0>        -0.1076
     14 C14         0.7947   -0.5217    7.2164 C.2       1 <0>         0.0544
     15 N1          0.9590   -1.2220    6.0436 N.pl3     1 <0>        -0.4148
     16 C15         1.2077   -2.6616    5.9347 C.3       1 <0>         0.0567
     17 C16         0.8384   -1.0712    8.5380 C.1       1 <0>         0.2772
     18 N2          0.8731   -1.5072    9.5865 N.1       1 <0>        -0.4040
     19 C17         0.1058   -2.4703   -1.0695 C.3       1 <0>        -0.1750
     20 O1          2.4621   -1.8793   -1.1062 O.3       1 <0>        -0.5513
     21 C18        -1.4548    0.3100   -0.1652 C.3       1 <0>        -0.1420
     22 H1          1.4049    2.1998    0.2694 H         1 <0>         0.0600
     23 H2         -0.0053    2.5537   -0.7574 H         1 <0>         0.0627
     24 H3         -0.1947    2.4487    1.0093 H         1 <0>         0.0607
     25 H4          0.2206   -0.1140   -2.0477 H         1 <0>         0.0862
     26 H5          1.7470    0.5133   -1.3409 H         1 <0>         0.0872
     27 H6         -0.0807    1.0493    2.8867 H         1 <0>         0.1304
     28 H7          2.0529   -2.5213    3.9254 H         1 <0>         0.1290
     29 H8          2.2423   -3.0860    1.5419 H         1 <0>         0.1223
     30 H9          0.4787    1.8128    4.9305 H         1 <0>         0.1526
     31 H10         0.4064    1.6100    7.5929 H         1 <0>         0.1545
     32 H11         2.2784   -2.8387    5.8331 H         1 <0>         0.0855
     33 H12         0.8400   -3.1626    6.8302 H         1 <0>         0.0877
     34 H13         0.6898   -3.0547    5.0599 H         1 <0>         0.0976
     35 H14        -0.0274   -2.4094   -2.1497 H         1 <0>         0.0704
     36 H15         0.4166   -3.4792   -0.7981 H         1 <0>         0.0609
     37 H16        -0.8357   -2.2343   -0.5735 H         1 <0>         0.0730
     38 H17         2.7291   -2.7604   -0.8104 H         1 <0>         0.3760
     39 H18        -1.7667    0.7121   -1.1292 H         1 <0>         0.0646
     40 H19        -1.6602   -0.7600   -0.1343 H         1 <0>         0.0606
     41 H20        -2.0058    0.8089    0.6320 H         1 <0>         0.0616
@<TRIPOS>BOND
     1    1    2 1
     2    1   22 1
     3    1   23 1
     4    1   24 1
     5    2    6 1
     6    2    3 1
     7    2   21 1
     8    3    4 1
     9    3   25 1
    10    3   26 1
    11    4    5 1
    12    4   19 1
    13    4   20 1
    14    5   10 ar
    15    5    6 ar
    16    6    7 ar
    17    7    8 ar
    18    7   27 1
    19    8    9 ar
    20    8   11 1
    21    9   10 ar
    22    9   28 1
    23   10   29 1
    24   11   15 1
    25   11   12 2
    26   12   13 1
    27   12   30 1
    28   13   14 2
    29   13   31 1
    30   14   15 1
    31   14   17 1
    32   15   16 1
    33   16   32 1
    34   16   33 1
    35   16   34 1
    36   17   18 3
    37   19   35 1
    38   19   36 1
    39   19   37 1
    40   20   38 1
    41   21   39 1
    42   21   40 1
    43   21   41 1
@<TRIPOS>MOLECULE
CHEMBL197846
   51    54     0     0     0
SMALL
USER_CHARGES

@<TRIPOS>ATOM
      1 C1         -0.0173    1.5056    0.0406 C.3       1 <0>        -0.1409
      2 C2          0.0019   -0.0008    0.0019 C.2       1 <0>        -0.0551
      3 C3         -1.1326   -0.6822    0.1096 C.2       1 <0>        -0.2203
      4 C4         -1.3030   -2.1454    0.2412 C.2       1 <0>         0.3912
      5 O1         -0.4242   -2.9549    0.4452 O.2       1 <0>        -0.4470
      6 C5         -2.7909   -2.4597    0.0584 C.3       1 <0>        -0.1681
      7 C6         -3.2956   -1.1949   -0.6558 C.3       1 <0>        -0.0669
      8 C7         -2.5379   -0.1090    0.1418 C.3       1 <0>        -0.0136
      9 C8         -2.7051    1.2325   -0.5235 C.3       1 <0>        -0.1075
     10 C9         -4.1527    1.4464   -0.9849 C.3       1 <0>        -0.1143
     11 C10        -5.1295    0.4792   -0.3303 C.3       1 <0>        -0.0676
     12 C11        -4.7774   -0.9662   -0.6664 C.3       1 <0>        -0.0684
     13 C12        -5.5515   -1.9531    0.1927 C.3       1 <0>        -0.1093
     14 C13        -6.9847   -1.4683    0.4148 C.3       1 <0>        -0.0962
     15 C14        -7.3598   -0.5018   -0.6830 C.2       1 <0>        -0.0144
     16 C15        -8.3799   -0.7684   -1.4912 C.2       1 <0>        -0.2412
     17 C16        -8.7562    0.1475   -2.5645 C.2       1 <0>         0.3875
     18 O2         -9.7316   -0.0919   -3.2478 O.2       1 <0>        -0.4656
     19 C17        -7.9396    1.3847   -2.8318 C.3       1 <0>        -0.1694
     20 C18        -6.5198    1.1960   -2.2943 C.3       1 <0>        -0.1060
     21 C19        -6.5566    0.7668   -0.8322 C.3       1 <0>        -0.0363
     22 C20        -7.1733    1.8696    0.0310 C.3       1 <0>        -0.1403
     23 C21        -2.9502   -0.0542    1.6127 C.3       1 <0>        -0.1477
     24 H1         -0.5243    1.8394    0.9459 H         1 <0>         0.0763
     25 H2          1.0056    1.8823    0.0371 H         1 <0>         0.0662
     26 H3         -0.5470    1.8848   -0.8333 H         1 <0>         0.0851
     27 H4          0.9385   -0.5261   -0.1135 H         1 <0>         0.1214
     28 H5         -2.9139   -3.3333   -0.5861 H         1 <0>         0.0930
     29 H6         -3.2802   -2.6182    1.0112 H         1 <0>         0.1096
     30 H7         -2.9201   -1.2109   -1.6987 H         1 <0>         0.0806
     31 H8         -2.4259    2.0297    0.1774 H         1 <0>         0.0685
     32 H9         -2.0380    1.3016   -1.3926 H         1 <0>         0.0692
     33 H10        -4.4488    2.4758   -0.7564 H         1 <0>         0.0673
     34 H11        -4.1933    1.3203   -2.0736 H         1 <0>         0.0669
     35 H12        -5.1490    0.6272    0.7482 H         1 <0>         0.0872
     36 H13        -5.1217   -1.1338   -1.7108 H         1 <0>         0.0666
     37 H14        -5.5805   -2.9205   -0.3087 H         1 <0>         0.0699
     38 H15        -5.0651   -2.0631    1.1593 H         1 <0>         0.0719
     39 H16        -7.6611   -2.3228    0.3937 H         1 <0>         0.0777
     40 H17        -7.0533   -0.9712    1.3811 H         1 <0>         0.0839
     41 H18        -8.9428   -1.6800   -1.3497 H         1 <0>         0.1299
     42 H19        -7.8921    1.5528   -3.9135 H         1 <0>         0.0946
     43 H20        -8.4107    2.2494   -2.3685 H         1 <0>         0.1027
     44 H21        -6.0072    0.4344   -2.8869 H         1 <0>         0.0721
     45 H22        -5.9752    2.1393   -2.3870 H         1 <0>         0.0836
     46 H23        -6.5672    2.7724   -0.0452 H         1 <0>         0.0673
     47 H24        -8.1846    2.0805   -0.3168 H         1 <0>         0.0590
     48 H25        -7.2074    1.5415    1.0699 H         1 <0>         0.0614
     49 H26        -2.3105    0.6511    2.1432 H         1 <0>         0.0587
     50 H27        -3.9883    0.2697    1.6872 H         1 <0>         0.0716
     51 H28        -2.8458   -1.0443    2.0565 H         1 <0>         0.0553
@<TRIPOS>BOND
     1    1    2 1
     2    1   24 1
     3    1   25 1
     4    1   26 1
     5    2    3 2
     6    2   27 1
     7    3    8 1
     8    3    4 1
     9    4    5 2
    10    4    6 1
    11    6    7 1
    12    6   28 1
    13    6   29 1
    14    7   12 1
    15    7    8 1
    16    7   30 1
    17    8    9 1
    18    8   23 1
    19    9   10 1
    20    9   31 1
    21    9   32 1
    22   10   11 1
    23   10   33 1
    24   10   34 1
    25   11   21 1
    26   11   12 1
    27   11   35 1
    28   12   13 1
    29   12   36 1
    30   13   14 1
    31   13   37 1
    32   13   38 1
    33   14   15 1
    34   14   39 1
    35   14   40 1
    36   15   21 1
    37   15   16 2
    38   16   17 1
    39   16   41 1
    40   17   18 2
    41   17   19 1
    42   19   20 1
    43   19   42 1
    44   19   43 1
    45   20   21 1
    46   20   44 1
    47   20   45 1
    48   21   22 1
    49   22   46 1
    50   22   47 1
    51   22   48 1
    52   23   49 1
    53   23   50 1
    54   23   51 1
@<TRIPOS>MOLECULE
CHEMBL197846__1
   51    54     0     0     0
SMALL
USER_CHARGES

@<TRIPOS>ATOM
      1 C1         -0.0255    1.5160    0.0238 C.3       1 <0>        -0.1403
      2 C2          0.0015    0.0094    0.0019 C.2       1 <0>        -0.0559
      3 C3         -1.1286   -0.6755    0.1102 C.2       1 <0>        -0.2205
      4 C4         -1.3001   -2.1399    0.2451 C.2       1 <0>         0.3922
      5 O1         -0.4287   -2.9455    0.4896 O.2       1 <0>        -0.4462
      6 C5         -2.7795   -2.4597    0.0038 C.3       1 <0>        -0.1666
      7 C6         -3.2613   -1.1818   -0.7010 C.3       1 <0>        -0.0755
      8 C7         -2.5404   -0.1133    0.1422 C.3       1 <0>        -0.0132
      9 C8         -2.7232    1.2432   -0.4799 C.3       1 <0>        -0.1051
     10 C9         -4.1900    1.4935   -0.8601 C.3       1 <0>        -0.1150
     11 C10        -5.1382    0.4305   -0.3426 C.3       1 <0>        -0.0680
     12 C11        -4.7562   -0.9719   -0.7846 C.3       1 <0>        -0.0602
     13 C12        -5.1288   -1.1949   -2.2616 C.3       1 <0>        -0.1160
     14 C13        -6.6388   -1.0729   -2.4456 C.3       1 <0>        -0.0974
     15 C14        -7.0422    0.3147   -1.9801 C.2       1 <0>        -0.0152
     16 C15        -7.7749    1.0541   -2.8143 C.2       1 <0>        -0.2447
     17 C16        -8.1999    2.4017   -2.4196 C.2       1 <0>         0.3878
     18 O2         -8.5270    3.2345   -3.2380 O.2       1 <0>        -0.4575
     19 C17        -8.2056    2.6967   -0.9315 C.3       1 <0>        -0.1690
     20 C18        -6.8498    2.2519   -0.3799 C.3       1 <0>        -0.1104
     21 C19        -6.6014    0.7724   -0.6290 C.3       1 <0>        -0.0277
     22 C20        -7.4372    0.0073    0.4083 C.3       1 <0>        -0.1474
     23 C21        -2.9531   -0.1200    1.6133 C.3       1 <0>        -0.1490
     24 H1         -0.5412    1.8571    0.9214 H         1 <0>         0.0765
     25 H2          0.9955    1.8976    0.0241 H         1 <0>         0.0663
     26 H3         -0.5502    1.8828   -0.8584 H         1 <0>         0.0841
     27 H4          0.9413   -0.5125   -0.1020 H         1 <0>         0.1214
     28 H5         -2.8723   -3.3198   -0.6636 H         1 <0>         0.0932
     29 H6         -3.3064   -2.6398    0.9325 H         1 <0>         0.1071
     30 H7         -2.8477   -1.1790   -1.7310 H         1 <0>         0.0821
     31 H8         -2.3861    2.0224    0.2176 H         1 <0>         0.0695
     32 H9         -2.1012    1.3241   -1.3838 H         1 <0>         0.0674
     33 H10        -4.4771    2.4746   -0.4557 H         1 <0>         0.0697
     34 H11        -4.2726    1.5525   -1.9531 H         1 <0>         0.0611
     35 H12        -5.1062    0.4601    0.7584 H         1 <0>         0.0815
     36 H13        -5.2743   -1.7191   -0.1736 H         1 <0>         0.0815
     37 H14        -4.6279   -0.4420   -2.8705 H         1 <0>         0.0680
     38 H15        -4.8002   -2.1884   -2.5654 H         1 <0>         0.0707
     39 H16        -6.8908   -1.1874   -3.5014 H         1 <0>         0.0773
     40 H17        -7.1508   -1.8325   -1.8620 H         1 <0>         0.0857
     41 H18        -8.0560    0.6594   -3.7795 H         1 <0>         0.1332
     42 H19        -8.3355    3.7676   -0.7695 H         1 <0>         0.0918
     43 H20        -9.0123    2.1509   -0.4481 H         1 <0>         0.0996
     44 H21        -6.0782    2.8369   -0.8783 H         1 <0>         0.0760
     45 H22        -6.8193    2.4442    0.6905 H         1 <0>         0.0829
     46 H23        -7.1514    0.3250    1.4110 H         1 <0>         0.0650
     47 H24        -8.4949    0.2166    0.2485 H         1 <0>         0.0594
     48 H25        -7.2584   -1.0626    0.3013 H         1 <0>         0.0621
     49 H26        -2.3170    0.5663    2.1723 H         1 <0>         0.0596
     50 H27        -3.9928    0.1957    1.7004 H         1 <0>         0.0717
     51 H28        -2.8441   -1.1267    2.0167 H         1 <0>         0.0564
@<TRIPOS>BOND
     1    1    2 1
     2    1   24 1
     3    1   25 1
     4    1   26 1
     5    2    3 2
     6    2   27 1
     7    3    8 1
     8    3    4 1
     9    4    5 2
    10    4    6 1
    11    6    7 1
    12    6   28 1
    13    6   29 1
    14    7   12 1
    15    7    8 1
    16    7   30 1
    17    8    9 1
    18    8   23 1
    19    9   10 1
    20    9   31 1
    21    9   32 1
    22   10   11 1
    23   10   33 1
    24   10   34 1
    25   11   21 1
    26   11   12 1
    27   11   35 1
    28   12   13 1
    29   12   36 1
    30   13   14 1
    31   13   37 1
    32   13   38 1
    33   14   15 1
    34   14   39 1
    35   14   40 1
    36   15   21 1
    37   15   16 2
    38   16   17 1
    39   16   41 1
    40   17   18 2
    41   17   19 1
    42   19   20 1
    43   19   42 1
    44   19   43 1
    45   20   21 1
    46   20   44 1
    47   20   45 1
    48   21   22 1
    49   22   46 1
    50   22   47 1
    51   22   48 1
    52   23   49 1
    53   23   50 1
    54   23   51 1
@<TRIPOS>MOLECULE
CHEMBL197846__2
   51    54     0     0     0
SMALL
USER_CHARGES

@<TRIPOS>ATOM
      1 C1         -0.0184    1.5028    0.0103 C.3       1 <0>        -0.1386
      2 C2          0.0021   -0.0041    0.0020 C.2       1 <0>        -0.0555
      3 C3         -1.1388   -0.6836    0.0093 C.2       1 <0>        -0.2166
      4 C4         -1.3235   -2.1542    0.0196 C.2       1 <0>         0.3916
      5 O1         -0.4587   -2.9850    0.1944 O.2       1 <0>        -0.4461
      6 C5         -2.8064   -2.4392   -0.2494 C.3       1 <0>        -0.1673
      7 C6         -3.2597   -1.1203   -0.8943 C.3       1 <0>        -0.0714
      8 C7         -2.5384   -0.1139    0.0257 C.3       1 <0>        -0.0187
      9 C8         -2.7322    1.2840   -0.5003 C.3       1 <0>        -0.1098
     10 C9         -4.2461    1.5876   -0.5242 C.3       1 <0>        -0.1114
     11 C10        -4.9803    0.5870   -1.3939 C.3       1 <0>        -0.0625
     12 C11        -4.7387   -0.8659   -1.0079 C.3       1 <0>        -0.0569
     13 C12        -5.5325   -1.3882    0.1676 C.3       1 <0>        -0.1112
     14 C13        -6.6462   -0.4330    0.5914 C.3       1 <0>        -0.0917
     15 C14        -7.2964    0.0768   -0.6712 C.2       1 <0>        -0.0164
     16 C15        -8.5621   -0.1982   -0.9542 C.2       1 <0>        -0.2413
     17 C16        -9.1718    0.2659   -2.1984 C.2       1 <0>         0.3883
     18 O2        -10.3674    0.1313   -2.3692 O.2       1 <0>        -0.4658
     19 C17        -8.3275    0.8927   -3.2767 C.3       1 <0>        -0.1678
     20 C18        -6.8502    0.5763   -3.0476 C.3       1 <0>        -0.1060
     21 C19        -6.4513    0.9087   -1.6053 C.3       1 <0>        -0.0279
     22 C20        -6.7360    2.3882   -1.3385 C.3       1 <0>        -0.1411
     23 C21        -3.0123   -0.1740    1.4775 C.3       1 <0>        -0.1457
     24 H1          1.0042    1.8801    0.0026 H         1 <0>         0.0660
     25 H2         -0.5455    1.8639   -0.8728 H         1 <0>         0.0828
     26 H3         -0.5286    1.8543    0.9071 H         1 <0>         0.0776
     27 H4          0.9446   -0.5313   -0.0098 H         1 <0>         0.1217
     28 H5         -2.9066   -3.2622   -0.9626 H         1 <0>         0.0921
     29 H6         -3.3421   -2.6613    0.6635 H         1 <0>         0.1092
     30 H7         -2.8085   -1.0692   -1.9133 H         1 <0>         0.0792
     31 H8         -2.2297    2.0036    0.1489 H         1 <0>         0.0761
     32 H9         -2.3307    1.3648   -1.5120 H         1 <0>         0.0667
     33 H10        -4.6482    1.5968    0.4804 H         1 <0>         0.0703
     34 H11        -4.3348    2.5961   -0.9500 H         1 <0>         0.0666
     35 H12        -4.5209    0.6953   -2.4024 H         1 <0>         0.0650
     36 H13        -5.0894   -1.4674   -1.8924 H         1 <0>         0.0638
     37 H14        -6.0265   -2.3242   -0.1543 H         1 <0>         0.0582
     38 H15        -4.9214   -1.6451    1.0144 H         1 <0>         0.0786
     39 H16        -7.3775   -0.9710    1.1901 H         1 <0>         0.0776
     40 H17        -6.2288    0.3935    1.1574 H         1 <0>         0.0852
     41 H18        -9.1519   -0.7743   -0.2561 H         1 <0>         0.1308
     42 H19        -8.6324    0.4784   -4.2466 H         1 <0>         0.0955
     43 H20        -8.4927    1.9679   -3.3036 H         1 <0>         0.1037
     44 H21        -6.6706   -0.4848   -3.2319 H         1 <0>         0.0712
     45 H22        -6.2387    1.1655   -3.7335 H         1 <0>         0.0795
     46 H23        -6.1442    3.0005   -2.0189 H         1 <0>         0.0668
     47 H24        -7.7955    2.5887   -1.4976 H         1 <0>         0.0584
     48 H25        -6.4711    2.6292   -0.3091 H         1 <0>         0.0645
     49 H26        -2.3582    0.4378    2.0988 H         1 <0>         0.0582
     50 H27        -4.0327    0.2036    1.5425 H         1 <0>         0.0697
     51 H28        -2.9839   -1.2062    1.8265 H         1 <0>         0.0549
@<TRIPOS>BOND
     1    1    2 1
     2    1   24 1
     3    1   25 1
     4    1   26 1
     5    2    3 2
     6    2   27 1
     7    3    8 1
     8    3    4 1
     9    4    5 2
    10    4    6 1
    11    6    7 1
    12    6   28 1
    13    6   29 1
    14    7   12 1
    15    7    8 1
    16    7   30 1
    17    8    9 1
    18    8   23 1
    19    9   10 1
    20    9   31 1
    21    9   32 1
    22   10   11 1
    23   10   33 1
    24   10   34 1
    25   11   21 1
    26   11   12 1
    27   11   35 1
    28   12   13 1
    29   12   36 1
    30   13   14 1
    31   13   37 1
    32   13   38 1
    33   14   15 1
    34   14   39 1
    35   14   40 1
    36   15   21 1
    37   15   16 2
    38   16   17 1
    39   16   41 1
    40   17   18 2
    41   17   19 1
    42   19   20 1
    43   19   42 1
    44   19   43 1
    45   20   21 1
    46   20   44 1
    47   20   45 1
    48   21   22 1
    49   22   46 1
    50   22   47 1
    51   22   48 1
    52   23   49 1
    53   23   50 1
    54   23   51 1
@<TRIPOS>MOLECULE
CHEMBL197846__3
   51    54     0     0     0
SMALL
USER_CHARGES

@<TRIPOS>ATOM
      1 C1          0.2239    1.0381    0.1347 C.3       1 <0>        -0.1408
      2 C2         -0.0173   -0.4462    0.0365 C.2       1 <0>        -0.0518
      3 C3         -1.2649   -0.9179   -0.0097 C.2       1 <0>        -0.2129
      4 C4         -1.6718   -2.3380   -0.0994 C.2       1 <0>         0.3919
      5 O1         -0.9297   -3.2977   -0.0868 O.2       1 <0>        -0.4480
      6 C5         -3.1966   -2.3773   -0.2104 C.3       1 <0>        -0.1656
      7 C6         -3.5250   -0.9938   -0.7852 C.3       1 <0>        -0.0776
      8 C7         -2.5288   -0.1143    0.0256 C.3       1 <0>        -0.0247
      9 C8         -2.5075    1.2524   -0.6272 C.3       1 <0>        -0.1130
     10 C9         -3.9066    1.8622   -0.4421 C.3       1 <0>        -0.1236
     11 C10        -4.9960    0.9695   -1.0283 C.3       1 <0>        -0.0678
     12 C11        -4.9171   -0.4656   -0.4912 C.3       1 <0>        -0.0774
     13 C12        -5.9595   -1.3308   -1.2058 C.3       1 <0>        -0.1145
     14 C13        -7.3600   -0.8288   -0.8481 C.3       1 <0>        -0.0973
     15 C14        -7.4525    0.6476   -1.1878 C.2       1 <0>        -0.0196
     16 C15        -8.5109    1.0576   -1.8866 C.2       1 <0>        -0.2415
     17 C16        -8.6598    2.4761   -2.2294 C.2       1 <0>         0.3877
     18 O2         -9.3603    2.8405   -3.1506 O.2       1 <0>        -0.4574
     19 C17        -7.8915    3.4628   -1.3720 C.3       1 <0>        -0.1682
     20 C18        -6.4480    2.9685   -1.2887 C.3       1 <0>        -0.1055
     21 C19        -6.3687    1.5670   -0.6956 C.3       1 <0>        -0.0270
     22 C20        -6.4769    1.6805    0.8264 C.3       1 <0>        -0.1495
     23 C21        -3.0139    0.0195    1.4705 C.3       1 <0>        -0.1489
     24 H1          1.2964    1.2310    0.1608 H         1 <0>         0.0670
     25 H2         -0.2137    1.5354   -0.7309 H         1 <0>         0.0852
     26 H3         -0.2364    1.4215    1.0453 H         1 <0>         0.0776
     27 H4          0.8195   -1.1283    0.0035 H         1 <0>         0.1231
     28 H5         -3.5147   -3.1654   -0.8930 H         1 <0>         0.0932
     29 H6         -3.6528   -2.5068    0.7711 H         1 <0>         0.1063
     30 H7         -3.3162   -0.9586   -1.8544 H         1 <0>         0.0859
     31 H8         -1.7604    1.8829   -0.1452 H         1 <0>         0.0800
     32 H9         -2.2827    1.1536   -1.6892 H         1 <0>         0.0665
     33 H10        -4.0956    2.0007    0.6225 H         1 <0>         0.0763
     34 H11        -3.9390    2.8332   -0.9363 H         1 <0>         0.0673
     35 H12        -4.8791    0.9333   -2.1114 H         1 <0>         0.0716
     36 H13        -5.0953   -0.4613    0.5842 H         1 <0>         0.0904
     37 H14        -5.8124   -1.2624   -2.2837 H         1 <0>         0.0673
     38 H15        -5.8520   -2.3678   -0.8877 H         1 <0>         0.0729
     39 H16        -8.1038   -1.3828   -1.4207 H         1 <0>         0.0778
     40 H17        -7.5374   -0.9702    0.2180 H         1 <0>         0.0846
     41 H18        -9.2591    0.3450   -2.2009 H         1 <0>         0.1337
     42 H19        -7.9187    4.4515   -1.8301 H         1 <0>         0.0922
     43 H20        -8.3272    3.5040   -0.3737 H         1 <0>         0.0998
     44 H21        -6.0137    2.9694   -2.2885 H         1 <0>         0.0700
     45 H22        -5.8765    3.6454   -0.6538 H         1 <0>         0.0827
     46 H23        -5.6835    2.3279    1.1998 H         1 <0>         0.0704
     47 H24        -7.4459    2.1036    1.0912 H         1 <0>         0.0590
     48 H25        -6.3784    0.6908    1.2724 H         1 <0>         0.0641
     49 H26        -2.2957    0.6075    2.0419 H         1 <0>         0.0575
     50 H27        -3.9834    0.5176    1.4836 H         1 <0>         0.0752
     51 H28        -3.1083   -0.9711    1.9153 H         1 <0>         0.0551
@<TRIPOS>BOND
     1    1    2 1
     2    1   24 1
     3    1   25 1
     4    1   26 1
     5    2    3 2
     6    2   27 1
     7    3    8 1
     8    3    4 1
     9    4    5 2
    10    4    6 1
    11    6    7 1
    12    6   28 1
    13    6   29 1
    14    7   12 1
    15    7    8 1
    16    7   30 1
    17    8    9 1
    18    8   23 1
    19    9   10 1
    20    9   31 1
    21    9   32 1
    22   10   11 1
    23   10   33 1
    24   10   34 1
    25   11   21 1
    26   11   12 1
    27   11   35 1
    28   12   13 1
    29   12   36 1
    30   13   14 1
    31   13   37 1
    32   13   38 1
    33   14   15 1
    34   14   39 1
    35   14   40 1
    36   15   21 1
    37   15   16 2
    38   16   17 1
    39   16   41 1
    40   17   18 2
    41   17   19 1
    42   19   20 1
    43   19   42 1
    44   19   43 1
    45   20   21 1
    46   20   44 1
    47   20   45 1
    48   21   22 1
    49   22   46 1
    50   22   47 1
    51   22   48 1
    52   23   49 1
    53   23   50 1
    54   23   51 1
@<TRIPOS>MOLECULE
CHEMBL197846__4
   51    54     0     0     0
SMALL
USER_CHARGES

@<TRIPOS>ATOM
      1 C1         -0.0246    1.5012   -0.0655 C.3       1 <0>        -0.1446
      2 C2          0.0021   -0.0041    0.0020 C.2       1 <0>        -0.0544
      3 C3         -1.1391   -0.6875    0.1100 C.2       1 <0>        -0.2099
      4 C4         -1.2758   -2.1486    0.2273 C.2       1 <0>         0.3914
      5 O1         -0.3671   -2.9522    0.2499 O.2       1 <0>        -0.4493
      6 C5         -2.7589   -2.4704    0.3158 C.3       1 <0>        -0.1793
      7 C6         -3.4398   -1.2428   -0.3640 C.3       1 <0>        -0.0666
      8 C7         -2.5319   -0.1075    0.1414 C.3       1 <0>        -0.0143
      9 C8         -2.6654    1.1555   -0.6784 C.3       1 <0>        -0.1299
     10 C9         -2.4175    0.8611   -2.1551 C.3       1 <0>        -0.1227
     11 C10        -3.4599   -0.1550   -2.6457 C.3       1 <0>        -0.0606
     12 C11        -3.3072   -1.4638   -1.8760 C.3       1 <0>        -0.0737
     13 C12        -4.3463   -2.5092   -2.2733 C.3       1 <0>        -0.1126
     14 C13        -4.7533   -2.4084   -3.7357 C.3       1 <0>        -0.0946
     15 C14        -3.6303   -1.7843   -4.5258 C.2       1 <0>        -0.0167
     16 C15        -3.0553   -2.4462   -5.5247 C.2       1 <0>        -0.2412
     17 C16        -1.9577   -1.8539   -6.2868 C.2       1 <0>         0.3870
     18 O2         -1.4612   -2.4645   -7.2102 O.2       1 <0>        -0.4642
     19 C17        -1.4424   -0.4834   -5.9246 C.3       1 <0>        -0.1707
     20 C18        -1.6932   -0.2367   -4.4329 C.3       1 <0>        -0.1086
     21 C19        -3.1995   -0.3753   -4.1416 C.3       1 <0>        -0.0341
     22 C20        -3.9876    0.6546   -4.9534 C.3       1 <0>        -0.1393
     23 C21        -2.9004    0.2204    1.5897 C.3       1 <0>        -0.1431
     24 H1         -0.5744    1.8936    0.7899 H         1 <0>         0.0784
     25 H2          0.9959    1.8838   -0.0481 H         1 <0>         0.0662
     26 H3         -0.5146    1.8149   -0.9873 H         1 <0>         0.0910
     27 H4          0.9447   -0.5297   -0.0369 H         1 <0>         0.1230
     28 H5         -2.9860   -3.3862   -0.2299 H         1 <0>         0.0950
     29 H6         -3.0716   -2.5551    1.3565 H         1 <0>         0.1045
     30 H7         -4.4783   -1.1189   -0.0568 H         1 <0>         0.0987
     31 H8         -3.6699    1.5605   -0.5554 H         1 <0>         0.0680
     32 H9         -1.9388    1.8896   -0.3303 H         1 <0>         0.0879
     33 H10        -2.5073    1.7824   -2.7306 H         1 <0>         0.0690
     34 H11        -1.4171    0.4470   -2.2813 H         1 <0>         0.0727
     35 H12        -4.4615    0.2513   -2.5048 H         1 <0>         0.0817
     36 H13        -2.3195   -1.8785   -2.0775 H         1 <0>         0.0677
     37 H14        -3.9343   -3.5017   -2.0904 H         1 <0>         0.0657
     38 H15        -5.2321   -2.3784   -1.6518 H         1 <0>         0.0713
     39 H16        -4.9615   -3.4052   -4.1247 H         1 <0>         0.0766
     40 H17        -5.6466   -1.7899   -3.8227 H         1 <0>         0.0842
     41 H18        -3.4041   -3.4367   -5.7768 H         1 <0>         0.1305
     42 H19        -0.3730   -0.4298   -6.1286 H         1 <0>         0.0949
     43 H20        -1.9660    0.2706   -6.5123 H         1 <0>         0.1035
     44 H21        -1.1307   -0.9608   -3.8435 H         1 <0>         0.0713
     45 H22        -1.3775    0.7733   -4.1718 H         1 <0>         0.0844
     46 H23        -3.6695    1.6587   -4.6732 H         1 <0>         0.0675
     47 H24        -3.8027    0.4982   -6.0162 H         1 <0>         0.0596
     48 H25        -5.0523    0.5405   -4.7493 H         1 <0>         0.0620
     49 H26        -2.2064    0.9638    1.9818 H         1 <0>         0.0584
     50 H27        -3.9154    0.6163    1.6256 H         1 <0>         0.0627
     51 H28        -2.8421   -0.6852    2.1934 H         1 <0>         0.0559
@<TRIPOS>BOND
     1    1    2 1
     2    1   24 1
     3    1   25 1
     4    1   26 1
     5    2    3 2
     6    2   27 1
     7    3    8 1
     8    3    4 1
     9    4    5 2
    10    4    6 1
    11    6    7 1
    12    6   28 1
    13    6   29 1
    14    7   12 1
    15    7    8 1
    16    7   30 1
    17    8    9 1
    18    8   23 1
    19    9   10 1
    20    9   31 1
    21    9   32 1
    22   10   11 1
    23   10   33 1
    24   10   34 1
    25   11   21 1
    26   11   12 1
    27   11   35 1
    28   12   13 1
    29   12   36 1
    30   13   14 1
    31   13   37 1
    32   13   38 1
    33   14   15 1
    34   14   39 1
    35   14   40 1
    36   15   21 1
    37   15   16 2
    38   16   17 1
    39   16   41 1
    40   17   18 2
    41   17   19 1
    42   19   20 1
    43   19   42 1
    44   19   43 1
    45   20   21 1
    46   20   44 1
    47   20   45 1
    48   21   22 1
    49   22   46 1
    50   22   47 1
    51   22   48 1
    52   23   49 1
    53   23   50 1
    54   23   51 1
@<TRIPOS>MOLECULE
CHEMBL197846__5
   51    54     0     0     0
SMALL
USER_CHARGES

@<TRIPOS>ATOM
      1 C1         -0.0260    1.4999   -0.0887 C.3       1 <0>        -0.1437
      2 C2          0.0021   -0.0041    0.0020 C.2       1 <0>        -0.0657
      3 C3         -1.1391   -0.6875    0.1100 C.2       1 <0>        -0.2043
      4 C4         -1.2745   -2.1483    0.2272 C.2       1 <0>         0.4034
      5 O1         -0.3650   -2.9511    0.2487 O.2       1 <0>        -0.4572
      6 C5         -2.7569   -2.4719    0.3175 C.3       1 <0>        -0.1795
      7 C6         -3.4411   -1.2466   -0.3610 C.3       1 <0>        -0.0680
      8 C7         -2.5314   -0.1063    0.1413 C.3       1 <0>        -0.0148
      9 C8         -2.6597    1.1626   -0.6675 C.3       1 <0>        -0.1315
     10 C9         -2.4768    0.8953   -2.1617 C.3       1 <0>        -0.1271
     11 C10        -3.5400   -0.1176   -2.6001 C.3       1 <0>        -0.0632
     12 C11        -3.2802   -1.4429   -1.8718 C.3       1 <0>        -0.0776
     13 C12        -1.8563   -1.9247   -2.1656 C.3       1 <0>        -0.1472
     14 C13        -1.7349   -2.2494   -3.6563 C.3       1 <0>        -0.0940
     15 C14        -2.1472   -1.0290   -4.4588 C.2       1 <0>        -0.0149
     16 C15        -1.3371   -0.6271   -5.4377 C.2       1 <0>        -0.2461
     17 C16        -1.6937    0.5379   -6.2545 C.2       1 <0>         0.3889
     18 O2         -0.8590    1.1619   -6.8757 O.2       1 <0>        -0.4580
     19 C17        -3.1604    0.9210   -6.2818 C.3       1 <0>        -0.1663
     20 C18        -3.6457    0.9758   -4.8339 C.3       1 <0>        -0.1111
     21 C19        -3.4497   -0.3301   -4.1141 C.3       1 <0>        -0.0267
     22 C20        -4.5962   -1.2542   -4.5296 C.3       1 <0>        -0.1474
     23 C21        -2.8959    0.2108    1.5930 C.3       1 <0>        -0.1437
     24 H1         -0.5843    1.9045    0.7555 H         1 <0>         0.0787
     25 H2          0.9937    1.8843   -0.0677 H         1 <0>         0.0662
     26 H3         -0.5078    1.7988   -1.0197 H         1 <0>         0.0897
     27 H4          0.9457   -0.5289   -0.0203 H         1 <0>         0.1235
     28 H5         -2.9833   -3.3882   -0.2277 H         1 <0>         0.0951
     29 H6         -3.0681   -2.5571    1.3586 H         1 <0>         0.1031
     30 H7         -4.4832   -1.1261   -0.0649 H         1 <0>         0.1010
     31 H8         -3.6472    1.5930   -0.5008 H         1 <0>         0.0677
     32 H9         -1.9022    1.8735   -0.3374 H         1 <0>         0.0905
     33 H10        -2.6012    1.8236   -2.7193 H         1 <0>         0.0702
     34 H11        -1.4827    0.4869   -2.3433 H         1 <0>         0.0711
     35 H12        -4.5300    0.2593   -2.3435 H         1 <0>         0.0838
     36 H13        -3.9904   -2.1944   -2.2167 H         1 <0>         0.0813
     37 H14        -1.1453   -1.1410   -1.9043 H         1 <0>         0.0894
     38 H15        -1.6461   -2.8192   -1.5794 H         1 <0>         0.0781
     39 H16        -0.7025   -2.5090   -3.8906 H         1 <0>         0.0768
     40 H17        -2.3886   -3.0862   -3.9023 H         1 <0>         0.0839
     41 H18        -0.4171   -1.1595   -5.6295 H         1 <0>         0.1327
     42 H19        -3.2794    1.8983   -6.7497 H         1 <0>         0.0927
     43 H20        -3.7284    0.1729   -6.8349 H         1 <0>         0.0992
     44 H21        -3.0961    1.7538   -4.3041 H         1 <0>         0.0750
     45 H22        -4.7073    1.2229   -4.8240 H         1 <0>         0.0819
     46 H23        -5.5482   -0.7912   -4.2701 H         1 <0>         0.0652
     47 H24        -4.5554   -1.4225   -5.6057 H         1 <0>         0.0588
     48 H25        -4.5017   -2.2071   -4.0089 H         1 <0>         0.0625
     49 H26        -2.1997    0.9500    1.9892 H         1 <0>         0.0582
     50 H27        -3.9101    0.6079    1.6345 H         1 <0>         0.0629
     51 H28        -2.8375   -0.6997    2.1894 H         1 <0>         0.0565
@<TRIPOS>BOND
     1    1    2 1
     2    1   24 1
     3    1   25 1
     4    1   26 1
     5    2    3 2
     6    2   27 1
     7    3    8 1
     8    3    4 1
     9    4    5 2
    10    4    6 1
    11    6    7 1
    12    6   28 1
    13    6   29 1
    14    7   12 1
    15    7    8 1
    16    7   30 1
    17    8    9 1
    18    8   23 1
    19    9   10 1
    20    9   31 1
    21    9   32 1
    22   10   11 1
    23   10   33 1
    24   10   34 1
    25   11   21 1
    26   11   12 1
    27   11   35 1
    28   12   13 1
    29   12   36 1
    30   13   14 1
    31   13   37 1
    32   13   38 1
    33   14   15 1
    34   14   39 1
    35   14   40 1
    36   15   21 1
    37   15   16 2
    38   16   17 1
    39   16   41 1
    40   17   18 2
    41   17   19 1
    42   19   20 1
    43   19   42 1
    44   19   43 1
    45   20   21 1
    46   20   44 1
    47   20   45 1
    48   21   22 1
    49   22   46 1
    50   22   47 1
    51   22   48 1
    52   23   49 1
    53   23   50 1
    54   23   51 1
@<TRIPOS>MOLECULE
CHEMBL197846__6
   51    54     0     0     0
SMALL
USER_CHARGES

@<TRIPOS>ATOM
      1 C1         -0.0215    1.5025   -0.0244 C.3       1 <0>        -0.1433
      2 C2          0.0021   -0.0041    0.0020 C.2       1 <0>        -0.0553
      3 C3         -1.1384   -0.6871    0.1099 C.2       1 <0>        -0.2091
      4 C4         -1.2637   -2.1503    0.2360 C.2       1 <0>         0.3915
      5 O1         -0.3456   -2.9359    0.3459 O.2       1 <0>        -0.4503
      6 C5         -2.7418   -2.5022    0.1984 C.3       1 <0>        -0.1811
      7 C6         -3.4107   -1.2556   -0.4520 C.3       1 <0>        -0.0652
      8 C7         -2.5375   -0.1300    0.1433 C.3       1 <0>        -0.0096
      9 C8         -2.7106    1.1910   -0.5547 C.3       1 <0>        -0.1358
     10 C9         -2.6424    1.1121   -2.0698 C.3       1 <0>        -0.1077
     11 C10        -3.4546   -0.0295   -2.6649 C.3       1 <0>        -0.0590
     12 C11        -3.1717   -1.3376   -1.9557 C.3       1 <0>        -0.0705
     13 C12        -3.9470   -2.4968   -2.5744 C.3       1 <0>        -0.1156
     14 C13        -5.4477   -2.2044   -2.5287 C.3       1 <0>        -0.0970
     15 C14        -5.6951   -0.9074   -3.2774 C.2       1 <0>        -0.0169
     16 C15        -6.5869   -0.9203   -4.2644 C.2       1 <0>        -0.2432
     17 C16        -6.8749    0.2966   -5.0290 C.2       1 <0>         0.3877
     18 O2         -7.4353    0.2535   -6.1059 O.2       1 <0>        -0.4594
     19 C17        -6.4428    1.6113   -4.4122 C.3       1 <0>        -0.1673
     20 C18        -5.0208    1.4380   -3.8889 C.3       1 <0>        -0.1080
     21 C19        -4.9219    0.3125   -2.8608 C.3       1 <0>        -0.0169
     22 C20        -5.5598    0.8279   -1.5730 C.3       1 <0>        -0.1495
     23 C21        -2.9422    0.0552    1.6132 C.3       1 <0>        -0.1464
     24 H1         -0.5554    1.8729    0.8507 H         1 <0>         0.0788
     25 H2          1.0002    1.8821   -0.0142 H         1 <0>         0.0667
     26 H3         -0.5263    1.8422   -0.9288 H         1 <0>         0.0902
     27 H4          0.9425   -0.5307   -0.0664 H         1 <0>         0.1233
     28 H5         -2.9016   -3.3916   -0.4142 H         1 <0>         0.0969
     29 H6         -3.1260   -2.6752    1.2030 H         1 <0>         0.1049
     30 H7         -4.4601   -1.1610   -0.1833 H         1 <0>         0.1023
     31 H8         -3.6274    1.6715   -0.2238 H         1 <0>         0.0738
     32 H9         -1.8960    1.8588   -0.2175 H         1 <0>         0.0844
     33 H10        -2.9853    2.0655   -2.4956 H         1 <0>         0.0680
     34 H11        -1.5901    0.9960   -2.3739 H         1 <0>         0.0609
     35 H12        -3.0438   -0.1687   -3.7059 H         1 <0>         0.0602
     36 H13        -2.0941   -1.5608   -2.1004 H         1 <0>         0.0682
     37 H14        -3.6387   -2.6244   -3.6166 H         1 <0>         0.0667
     38 H15        -3.7391   -3.4201   -2.0345 H         1 <0>         0.0744
     39 H16        -5.9921   -3.0151   -3.0144 H         1 <0>         0.0766
     40 H17        -5.7773   -2.1104   -1.4967 H         1 <0>         0.0861
     41 H18        -7.1068   -1.8384   -4.5051 H         1 <0>         0.1324
     42 H19        -6.4605    2.3954   -5.1741 H         1 <0>         0.0917
     43 H20        -7.1186    1.8846   -3.6032 H         1 <0>         0.1016
     44 H21        -4.3576    1.2056   -4.7213 H         1 <0>         0.0678
     45 H22        -4.6964    2.3659   -3.4197 H         1 <0>         0.0826
     46 H23        -5.0393    1.7275   -1.2445 H         1 <0>         0.0710
     47 H24        -6.6089    1.0611   -1.7553 H         1 <0>         0.0569
     48 H25        -5.4867    0.0630   -0.7999 H         1 <0>         0.0652
     49 H26        -2.2668    0.7661    2.0892 H         1 <0>         0.0573
     50 H27        -3.9630    0.4340    1.6641 H         1 <0>         0.0627
     51 H28        -2.8841   -0.9029    2.1296 H         1 <0>         0.0563
@<TRIPOS>BOND
     1    1    2 1
     2    1   24 1
     3    1   25 1
     4    1   26 1
     5    2    3 2
     6    2   27 1
     7    3    8 1
     8    3    4 1
     9    4    5 2
    10    4    6 1
    11    6    7 1
    12    6   28 1
    13    6   29 1
    14    7   12 1
    15    7    8 1
    16    7   30 1
    17    8    9 1
    18    8   23 1
    19    9   10 1
    20    9   31 1
    21    9   32 1
    22   10   11 1
    23   10   33 1
    24   10   34 1
    25   11   21 1
    26   11   12 1
    27   11   35 1
    28   12   13 1
    29   12   36 1
    30   13   14 1
    31   13   37 1
    32   13   38 1
    33   14   15 1
    34   14   39 1
    35   14   40 1
    36   15   21 1
    37   15   16 2
    38   16   17 1
    39   16   41 1
    40   17   18 2
    41   17   19 1
    42   19   20 1
    43   19   42 1
    44   19   43 1
    45   20   21 1
    46   20   44 1
    47   20   45 1
    48   21   22 1
    49   22   46 1
    50   22   47 1
    51   22   48 1
    52   23   49 1
    53   23   50 1
    54   23   51 1
@<TRIPOS>MOLECULE
CHEMBL197846__7
   51    54     0     0     0
SMALL
USER_CHARGES

@<TRIPOS>ATOM
      1 C1          0.0461    1.3968    0.0992 C.3       1 <0>        -0.1413
      2 C2          0.0067   -0.1063    0.2005 C.2       1 <0>        -0.0507
      3 C3         -1.1658   -0.7435    0.2171 C.2       1 <0>        -0.2243
      4 C4         -1.3629   -2.1962    0.3180 C.2       1 <0>         0.3908
      5 O1         -0.4867   -3.0337    0.3709 O.2       1 <0>        -0.4498
      6 C5         -2.8610   -2.4643    0.3437 C.3       1 <0>        -0.1702
      7 C6         -3.4465   -1.1268    0.8367 C.3       1 <0>        -0.0669
      8 C7         -2.5479   -0.0939    0.1412 C.3       1 <0>        -0.0110
      9 C8         -2.8958    0.0070   -1.3462 C.3       1 <0>        -0.1056
     10 C9         -4.3836    0.2855   -1.5336 C.3       1 <0>        -0.1197
     11 C10        -5.1805   -0.8960   -0.9670 C.3       1 <0>        -0.0678
     12 C11        -4.9158   -0.9833    0.5249 C.3       1 <0>        -0.0714
     13 C12        -5.6894   -2.1670    1.1158 C.3       1 <0>        -0.1159
     14 C13        -7.1908   -1.9151    0.9644 C.3       1 <0>        -0.0973
     15 C14        -7.4948   -1.6592   -0.5005 C.2       1 <0>        -0.0194
     16 C15        -8.4953   -2.3421   -1.0557 C.2       1 <0>        -0.2407
     17 C16        -8.8405   -2.1216   -2.4643 C.2       1 <0>         0.3875
     18 O2         -9.4526   -2.9474   -3.1088 O.2       1 <0>        -0.4573
     19 C17        -8.3923   -0.8069   -3.0720 C.3       1 <0>        -0.1681
     20 C18        -6.9123   -0.6287   -2.7369 C.3       1 <0>        -0.1052
     21 C19        -6.6720   -0.6444   -1.2235 C.3       1 <0>        -0.0282
     22 C20        -7.0183    0.7406   -0.6734 C.3       1 <0>        -0.1479
     23 C21        -2.5864    1.2654    0.8423 C.3       1 <0>        -0.1470
     24 H1          1.0801    1.7273    0.0004 H         1 <0>         0.0658
     25 H2         -0.5227    1.7171   -0.7736 H         1 <0>         0.0778
     26 H3         -0.3905    1.8331    0.9976 H         1 <0>         0.0862
     27 H4          0.9274   -0.6678    0.2597 H         1 <0>         0.1232
     28 H5         -3.2273   -2.7001   -0.6554 H         1 <0>         0.1054
     29 H6         -3.0964   -3.2681    1.0412 H         1 <0>         0.0945
     30 H7         -3.2973   -1.0451    1.9133 H         1 <0>         0.0794
     31 H8         -2.3197    0.8157   -1.7957 H         1 <0>         0.0659
     32 H9         -2.6413   -0.9313   -1.8390 H         1 <0>         0.0624
     33 H10        -4.6546    1.1978   -1.0021 H         1 <0>         0.0748
     34 H11        -4.6034    0.3992   -2.5952 H         1 <0>         0.0696
     35 H12        -4.8731   -1.8174   -1.4615 H         1 <0>         0.0766
     36 H13        -5.2859   -0.0720    0.9946 H         1 <0>         0.0805
     37 H14        -5.4183   -3.0800    0.5856 H         1 <0>         0.0684
     38 H15        -5.4427   -2.2720    2.1723 H         1 <0>         0.0719
     39 H16        -7.7446   -2.7897    1.3055 H         1 <0>         0.0781
     40 H17        -7.4770   -1.0447    1.5548 H         1 <0>         0.0846
     41 H18        -9.0517   -3.0580   -0.4689 H         1 <0>         0.1338
     42 H19        -8.5266   -0.8338   -4.1533 H         1 <0>         0.0922
     43 H20        -8.9698    0.0137   -2.6465 H         1 <0>         0.0998
     44 H21        -6.3432   -1.4336   -3.2020 H         1 <0>         0.0693
     45 H22        -6.5695    0.3250   -3.1382 H         1 <0>         0.0831
     46 H23        -6.4164    1.4942   -1.1811 H         1 <0>         0.0707
     47 H24        -8.0754    0.9451   -0.8432 H         1 <0>         0.0578
     48 H25        -6.8100    0.7693    0.3962 H         1 <0>         0.0636
     49 H26        -2.0072    1.9876    0.2668 H         1 <0>         0.0718
     50 H27        -3.6191    1.6059    0.9184 H         1 <0>         0.0611
     51 H28        -2.1603    1.1713    1.8411 H         1 <0>         0.0590
@<TRIPOS>BOND
     1    1    2 1
     2    1   24 1
     3    1   25 1
     4    1   26 1
     5    2    3 2
     6    2   27 1
     7    3    8 1
     8    3    4 1
     9    4    5 2
    10    4    6 1
    11    6    7 1
    12    6   28 1
    13    6   29 1
    14    7   12 1
    15    7    8 1
    16    7   30 1
    17    8    9 1
    18    8   23 1
    19    9   10 1
    20    9   31 1
    21    9   32 1
    22   10   11 1
    23   10   33 1
    24   10   34 1
    25   11   21 1
    26   11   12 1
    27   11   35 1
    28   12   13 1
    29   12   36 1
    30   13   14 1
    31   13   37 1
    32   13   38 1
    33   14   15 1
    34   14   39 1
    35   14   40 1
    36   15   21 1
    37   15   16 2
    38   16   17 1
    39   16   41 1
    40   17   18 2
    41   17   19 1
    42   19   20 1
    43   19   42 1
    44   19   43 1
    45   20   21 1
    46   20   44 1
    47   20   45 1
    48   21   22 1
    49   22   46 1
    50   22   47 1
    51   22   48 1
    52   23   49 1
    53   23   50 1
    54   23   51 1
@<TRIPOS>MOLECULE
CHEMBL507916
   78    83     0     0     0
SMALL
USER_CHARGES

@<TRIPOS>ATOM
      1 C1         -0.2039    1.0826   -0.7360 C.3       1 <0>        -0.0471
      2 C2          0.1744   -0.1836   -0.0875 C.1       1 <0>        -0.1605
      3 C3          0.4760   -1.1935    0.4297 C.1       1 <0>        -0.2150
      4 C4          0.8542   -2.4596    1.0782 C.3       1 <0>         0.2593
      5 C5          2.3704   -2.7185    0.9042 C.3       1 <0>        -0.1449
      6 C6          2.4998   -4.0056    0.0467 C.3       1 <0>        -0.1135
      7 C7          1.1662   -4.0534   -0.7109 C.3       1 <0>        -0.0798
      8 H1          1.1644   -3.3320   -1.5280 H         1 <0>         0.0811
      9 C8          0.1587   -3.6333    0.3917 C.3       1 <0>        -0.0376
     10 C9         -1.1524   -3.3049   -0.3010 C.3       1 <0>        -0.0954
     11 C10        -1.7113   -4.6207   -0.8636 C.3       1 <0>        -0.0276
     12 H2         -2.5752   -4.4034   -1.4917 H         1 <0>         0.1076
     13 C11        -0.6654   -5.3446   -1.6881 C.2       1 <0>        -0.0541
     14 C12        -1.0576   -5.8856   -2.8399 C.2       1 <0>        -0.1222
     15 C13        -2.4924   -5.7632   -3.2999 C.3       1 <0>        -0.0831
     16 C14        -2.4991   -5.4457   -4.7984 C.3       1 <0>        -0.1658
     17 C15        -1.6225   -6.4216   -5.5356 C.2       1 <0>         0.3865
     18 O1         -1.9483   -6.7942   -6.6449 O.2       1 <0>        -0.4690
     19 C16        -0.4336   -6.9102   -4.9660 C.2       1 <0>        -0.2432
     20 C17        -0.1238   -6.6334   -3.6814 C.2       1 <0>         0.0233
     21 C18         1.1768   -7.0832   -3.0622 C.3       1 <0>        -0.0952
     22 C19         1.7361   -5.9122   -2.2557 C.3       1 <0>        -0.1114
     23 C20         0.7689   -5.4336   -1.2171 C.3       1 <0>        -0.0432
     24 H3          0.8143   -6.1401   -0.3883 H         1 <0>         0.0922
     25 C21        -2.1396   -5.5054    0.2787 C.ar      1 <0>        -0.0370
     26 C22        -2.7983   -4.9592    1.3650 C.ar      1 <0>        -0.1077
     27 C23        -3.1926   -5.7673    2.4132 C.ar      1 <0>        -0.0992
     28 C24        -2.9268   -7.1300    2.3756 C.ar      1 <0>         0.1272
     29 C25        -2.2650   -7.6754    1.2831 C.ar      1 <0>        -0.0694
     30 C26        -1.8781   -6.8626    0.2357 C.ar      1 <0>        -0.1149
     31 N1         -3.3244   -7.9512    3.4358 N.pl3     1 <0>        -0.5218
     32 C27        -2.7522   -7.7534    4.7699 C.3       1 <0>         0.0563
     33 C28        -4.2338   -8.9244    3.2301 C.2       1 <0>         0.5503
     34 S1         -4.9937   -9.0771    1.7036 S.2       1 <0>        -0.5904
     35 N2         -4.5450   -9.7774    4.2261 N.pl3     1 <0>        -0.6310
     36 C29        -5.4025  -10.8557    3.9814 C.ar      1 <0>         0.1296
     37 C30        -5.2913  -11.5790    2.8011 C.ar      1 <0>        -0.0597
     38 C31        -6.1386  -12.6432    2.5623 C.ar      1 <0>        -0.1010
     39 C32        -7.0978  -12.9890    3.4979 C.ar      1 <0>        -0.0290
     40 C33        -7.2111  -12.2696    4.6747 C.ar      1 <0>        -0.1043
     41 C34        -6.3626  -11.2082    4.9210 C.ar      1 <0>        -0.1118
     42 Cl1        -8.1612  -14.3272    3.1946 Cl        1 <0>        -0.0661
     43 C35        -0.0349   -4.7795    1.3866 C.3       1 <0>        -0.1529
     44 O2          0.5127   -2.4252    2.4654 O.3       1 <0>        -0.5399
     45 H4          0.2990    1.9108   -0.2368 H         1 <0>         0.0825
     46 H5          0.0926    1.0565   -1.7846 H         1 <0>         0.0820
     47 H6         -1.2832    1.2180   -0.6668 H         1 <0>         0.0825
     48 H7          2.8367   -1.8781    0.3901 H         1 <0>         0.0724
     49 H8          2.8383   -2.8687    1.8772 H         1 <0>         0.0806
     50 H9          3.3351   -3.9229   -0.6486 H         1 <0>         0.0717
     51 H10         2.6126   -4.8830    0.6835 H         1 <0>         0.0751
     52 H11        -1.8547   -2.8798    0.4160 H         1 <0>         0.0766
     53 H12        -0.9766   -2.5991   -1.1128 H         1 <0>         0.0722
     54 H13        -3.0151   -6.7031   -3.1226 H         1 <0>         0.0850
     55 H14        -2.9847   -4.9589   -2.7531 H         1 <0>         0.0923
     56 H15        -3.5183   -5.5162   -5.1785 H         1 <0>         0.0955
     57 H16        -2.1256   -4.4338   -4.9553 H         1 <0>         0.0986
     58 H17         0.2374   -7.5119   -5.5610 H         1 <0>         0.1353
     59 H18         0.9981   -7.9334   -2.4039 H         1 <0>         0.0893
     60 H19         1.8817   -7.3628   -3.8451 H         1 <0>         0.0859
     61 H20         2.6607   -6.2247   -1.7704 H         1 <0>         0.0790
     62 H21         1.9539   -5.0864   -2.9330 H         1 <0>         0.0675
     63 H22        -3.0044   -3.8994    1.3938 H         1 <0>         0.1298
     64 H23        -3.7067   -5.3401    3.2615 H         1 <0>         0.1224
     65 H24        -2.0566   -8.7346    1.2510 H         1 <0>         0.1224
     66 H25        -1.3671   -7.2868   -0.6160 H         1 <0>         0.1292
     67 H26        -3.3661   -7.0460    5.3273 H         1 <0>         0.0771
     68 H27        -2.7252   -8.7063    5.2986 H         1 <0>         0.0761
     69 H28        -1.7397   -7.3609    4.6765 H         1 <0>         0.0968
     70 H29        -4.1746   -9.6437    5.1126 H         1 <0>         0.4073
     71 H30        -4.5431  -11.3093    2.0705 H         1 <0>         0.1526
     72 H31        -6.0527  -13.2058    1.6444 H         1 <0>         0.1395
     73 H32        -7.9608  -12.5414    5.4030 H         1 <0>         0.1390
     74 H33        -6.4482  -10.6501    5.8416 H         1 <0>         0.1333
     75 H34        -0.8517   -4.5367    2.0662 H         1 <0>         0.0716
     76 H35        -0.2730   -5.6947    0.8446 H         1 <0>         0.0816
     77 H36         0.8823   -4.9237    1.9577 H         1 <0>         0.0508
     78 H37         0.9400   -1.7112    2.9580 H         1 <0>         0.3778
@<TRIPOS>BOND
     1    1    2 1
     2    1   45 1
     3    1   46 1
     4    1   47 1
     5    2    3 3
     6    3    4 1
     7    4    9 1
     8    4    5 1
     9    4   44 1
    10    5    6 1
    11    5   48 1
    12    5   49 1
    13    6    7 1
    14    6   50 1
    15    6   51 1
    16    7    8 1
    17    7   23 1
    18    7    9 1
    19    9   10 1
    20    9   43 1
    21   10   11 1
    22   10   52 1
    23   10   53 1
    24   11   12 1
    25   11   13 1
    26   11   25 1
    27   13   23 1
    28   13   14 2
    29   14   20 1
    30   14   15 1
    31   15   16 1
    32   15   54 1
    33   15   55 1
    34   16   17 1
    35   16   56 1
    36   16   57 1
    37   17   18 2
    38   17   19 1
    39   19   20 2
    40   19   58 1
    41   20   21 1
    42   21   22 1
    43   21   59 1
    44   21   60 1
    45   22   23 1
    46   22   61 1
    47   22   62 1
    48   23   24 1
    49   25   30 ar
    50   25   26 ar
    51   26   27 ar
    52   26   63 1
    53   27   28 ar
    54   27   64 1
    55   28   29 ar
    56   28   31 1
    57   29   30 ar
    58   29   65 1
    59   30   66 1
    60   31   32 1
    61   31   33 1
    62   32   67 1
    63   32   68 1
    64   32   69 1
    65   33   34 2
    66   33   35 1
    67   35   36 1
    68   35   70 1
    69   36   41 ar
    70   36   37 ar
    71   37   38 ar
    72   37   71 1
    73   38   39 ar
    74   38   72 1
    75   39   40 ar
    76   39   42 1
    77   40   41 ar
    78   40   73 1
    79   41   74 1
    80   43   75 1
    81   43   76 1
    82   43   77 1
    83   44   78 1
@<TRIPOS>MOLECULE
CHEMBL449900
   78    83     0     0     0
SMALL
USER_CHARGES

@<TRIPOS>ATOM
      1 C1         -1.4787    2.2127    0.9862 C.3       1 <0>        -0.0469
      2 C2         -1.0094    0.8227    1.1067 C.1       1 <0>        -0.1614
      3 C3         -0.6351   -0.2859    1.2028 C.1       1 <0>        -0.2141
      4 C4         -0.1658   -1.6758    1.3233 C.3       1 <0>         0.2589
      5 C5          1.1309   -1.8764    0.5021 C.3       1 <0>        -0.1448
      6 C6          0.7883   -2.8967   -0.6161 C.3       1 <0>        -0.1135
      7 C7         -0.7318   -2.7501   -0.7657 C.3       1 <0>        -0.0798
      8 H1         -0.9762   -1.8414   -1.3159 H         1 <0>         0.0808
      9 C8         -1.1872   -2.6333    0.7129 C.3       1 <0>        -0.0376
     10 C9         -2.6237   -2.1401    0.7017 C.3       1 <0>        -0.0948
     11 C10        -3.4863   -3.2665    0.1125 C.3       1 <0>        -0.0262
     12 H2         -4.4991   -2.8962   -0.0467 H         1 <0>         0.1057
     13 C11        -2.9190   -3.7488   -1.2078 C.2       1 <0>        -0.0520
     14 C12        -3.7782   -3.9737   -2.2000 C.2       1 <0>        -0.1250
     15 C13        -5.2590   -3.7402   -2.0051 C.3       1 <0>        -0.0827
     16 C14        -5.8119   -3.0449   -3.2530 C.3       1 <0>        -0.1657
     17 C15        -5.3915   -3.7937   -4.4887 C.2       1 <0>         0.3866
     18 O1         -6.1563   -3.8668   -5.4296 O.2       1 <0>        -0.4693
     19 C16        -4.1309   -4.4099   -4.5759 C.2       1 <0>        -0.2444
     20 C17        -3.3227   -4.4750   -3.4964 C.2       1 <0>         0.0242
     21 C18        -1.9365   -5.0663   -3.5750 C.3       1 <0>        -0.0955
     22 C19        -0.9938   -4.1429   -2.8047 C.3       1 <0>        -0.1114
     23 C20        -1.4311   -3.9529   -1.3848 C.3       1 <0>        -0.0443
     24 H3         -1.1407   -4.8500   -0.8381 H         1 <0>         0.0929
     25 C21        -3.5272   -4.4185    1.0832 C.ar      1 <0>        -0.0518
     26 C22        -3.6994   -4.1768    2.4338 C.ar      1 <0>        -0.1032
     27 C23        -3.7373   -5.2304    3.3261 C.ar      1 <0>        -0.1162
     28 C24        -3.6027   -6.5336    2.8655 C.ar      1 <0>         0.1514
     29 C25        -3.4303   -6.7729    1.5085 C.ar      1 <0>        -0.0994
     30 C26        -3.3981   -5.7153    0.6208 C.ar      1 <0>        -0.1109
     31 N1         -3.6402   -7.6032    3.7669 N.am      1 <0>        -0.5806
     32 C27        -2.6758   -7.6674    4.8679 C.3       1 <0>         0.0735
     33 C28        -4.5634   -8.5744    3.6223 C.2       1 <0>         0.7062
     34 O2         -5.4197   -8.4763    2.7646 O.2       1 <0>        -0.5516
     35 N2         -4.5376   -9.6542    4.4284 N.am      1 <0>        -0.6836
     36 C29        -5.4241  -10.7147    4.2064 C.ar      1 <0>         0.1695
     37 C30        -5.9219  -11.4412    5.2799 C.ar      1 <0>        -0.1354
     38 C31        -6.7967  -12.4868    5.0583 C.ar      1 <0>        -0.0883
     39 C32        -7.1772  -12.8105    3.7678 C.ar      1 <0>        -0.0515
     40 C33        -6.6824  -12.0880    2.6962 C.ar      1 <0>        -0.0881
     41 C34        -5.8115  -11.0382    2.9128 C.ar      1 <0>        -0.1078
     42 Cl1        -8.2764  -14.1256    3.4926 Cl        1 <0>        -0.0689
     43 C35        -1.0962   -3.9988    1.3970 C.3       1 <0>        -0.1524
     44 O3          0.0604   -2.0034    2.6958 O.3       1 <0>        -0.5394
     45 H4         -0.7412    2.8845    1.4252 H         1 <0>         0.0818
     46 H5         -1.6146    2.4603   -0.0666 H         1 <0>         0.0825
     47 H6         -2.4279    2.3224    1.5107 H         1 <0>         0.0823
     48 H7          1.4448   -0.9301    0.0616 H         1 <0>         0.0723
     49 H8          1.9205   -2.2725    1.1407 H         1 <0>         0.0809
     50 H9          1.2939   -2.6341   -1.5453 H         1 <0>         0.0716
     51 H10         1.0491   -3.9089   -0.3071 H         1 <0>         0.0754
     52 H11        -2.9476   -1.9176    1.7184 H         1 <0>         0.0763
     53 H12        -2.7048   -1.2474    0.0815 H         1 <0>         0.0716
     54 H13        -5.7647   -4.6955   -1.8641 H         1 <0>         0.0836
     55 H14        -5.4179   -3.1067   -1.1324 H         1 <0>         0.0923
     56 H15        -6.9002   -3.0174   -3.1994 H         1 <0>         0.0952
     57 H16        -5.4278   -2.0259   -3.2993 H         1 <0>         0.0989
     58 H17        -3.8062   -4.8348   -5.5143 H         1 <0>         0.1354
     59 H18        -1.9319   -6.0586   -3.1241 H         1 <0>         0.0892
     60 H19        -1.6209   -5.1312   -4.6163 H         1 <0>         0.0861
     61 H20         0.0098   -4.5680   -2.8189 H         1 <0>         0.0794
     62 H21        -0.9724   -3.1691   -3.2939 H         1 <0>         0.0675
     63 H22        -3.8040   -3.1631    2.7914 H         1 <0>         0.1281
     64 H23        -3.8711   -5.0410    4.3809 H         1 <0>         0.1235
     65 H24        -3.3253   -7.7853    1.1472 H         1 <0>         0.1204
     66 H25        -3.2679   -5.9010   -0.4351 H         1 <0>         0.1272
     67 H26        -3.0848   -7.1563    5.7394 H         1 <0>         0.0649
     68 H27        -2.4783   -8.7099    5.1176 H         1 <0>         0.0721
     69 H28        -1.7468   -7.1839    4.5658 H         1 <0>         0.0848
     70 H29        -3.9048   -9.6965    5.1623 H         1 <0>         0.4091
     71 H30        -5.6251  -11.1892    6.2873 H         1 <0>         0.1351
     72 H31        -7.1840  -13.0524    5.8929 H         1 <0>         0.1385
     73 H32        -6.9806  -12.3428    1.6900 H         1 <0>         0.1374
     74 H33        -5.4289  -10.4720    2.0765 H         1 <0>         0.1443
     75 H34        -1.5768   -3.9485    2.3740 H         1 <0>         0.0712
     76 H35        -1.5982   -4.7468    0.7832 H         1 <0>         0.0818
     77 H36        -0.0488   -4.2740    1.5210 H         1 <0>         0.0508
     78 H37         0.7146   -1.4404    3.1318 H         1 <0>         0.3777
@<TRIPOS>BOND
     1    1    2 1
     2    1   45 1
     3    1   46 1
     4    1   47 1
     5    2    3 3
     6    3    4 1
     7    4    9 1
     8    4    5 1
     9    4   44 1
    10    5    6 1
    11    5   48 1
    12    5   49 1
    13    6    7 1
    14    6   50 1
    15    6   51 1
    16    7    8 1
    17    7   23 1
    18    7    9 1
    19    9   10 1
    20    9   43 1
    21   10   11 1
    22   10   52 1
    23   10   53 1
    24   11   12 1
    25   11   13 1
    26   11   25 1
    27   13   23 1
    28   13   14 2
    29   14   20 1
    30   14   15 1
    31   15   16 1
    32   15   54 1
    33   15   55 1
    34   16   17 1
    35   16   56 1
    36   16   57 1
    37   17   18 2
    38   17   19 1
    39   19   20 2
    40   19   58 1
    41   20   21 1
    42   21   22 1
    43   21   59 1
    44   21   60 1
    45   22   23 1
    46   22   61 1
    47   22   62 1
    48   23   24 1
    49   25   30 ar
    50   25   26 ar
    51   26   27 ar
    52   26   63 1
    53   27   28 ar
    54   27   64 1
    55   28   29 ar
    56   28   31 1
    57   29   30 ar
    58   29   65 1
    59   30   66 1
    60   31   32 1
    61   31   33 am
    62   32   67 1
    63   32   68 1
    64   32   69 1
    65   33   34 2
    66   33   35 am
    67   35   36 1
    68   35   70 1
    69   36   41 ar
    70   36   37 ar
    71   37   38 ar
    72   37   71 1
    73   38   39 ar
    74   38   72 1
    75   39   40 ar
    76   39   42 1
    77   40   41 ar
    78   40   73 1
    79   41   74 1
    80   43   75 1
    81   43   76 1
    82   43   77 1
    83   44   78 1
@<TRIPOS>MOLECULE
CHEMBL232219
   72    77     0     0     0
SMALL
USER_CHARGES

@<TRIPOS>ATOM
      1 C1          0.1113    1.6111    0.2974 C.3       1 <0>        -0.1531
      2 C2          0.1783    0.0830    0.2624 C.3       1 <0>        -0.0360
      3 C3         -1.2257   -0.4962    0.2593 C.3       1 <0>        -0.0982
      4 C4         -1.9864    0.1513    1.4273 C.3       1 <0>        -0.0102
      5 H1         -2.9472   -0.3486    1.5504 H         1 <0>         0.0996
      6 C5         -1.1978    0.0370    2.7131 C.2       1 <0>        -0.0901
      7 C6         -1.8514   -0.2821    3.8295 C.2       1 <0>        -0.1172
      8 C7         -3.3419   -0.5155    3.8297 C.3       1 <0>        -0.0776
      9 C8         -3.6526   -1.7155    4.7294 C.3       1 <0>        -0.1660
     10 C9         -2.9777   -1.5506    6.0642 C.2       1 <0>         0.3860
     11 O1         -3.5430   -1.9334    7.0689 O.2       1 <0>        -0.4632
     12 C10        -1.7045   -0.9623    6.1709 C.2       1 <0>        -0.2231
     13 C11        -1.1268   -0.3819    5.0986 C.2       1 <0>        -0.0247
     14 C12         0.2702    0.1878    5.1484 C.3       1 <0>         0.0934
     15 O2          0.9175   -0.1495    3.9210 O.3       1 <0>        -0.3646
     16 C13         0.2914    0.2897    2.7265 C.3       1 <0>         0.1354
     17 H2          0.4718    1.3574    2.6023 H         1 <0>         0.0869
     18 C14         0.8916   -0.4446    1.5354 C.3       1 <0>        -0.0774
     19 H3          0.7637   -1.5226    1.6334 H         1 <0>         0.0894
     20 C15         2.3555   -0.0838    1.2474 C.3       1 <0>        -0.1087
     21 C16         2.5139   -0.4327   -0.2563 C.3       1 <0>        -0.1459
     22 C17         1.0947   -0.3716   -0.8712 C.3       1 <0>         0.2586
     23 C18         0.6897   -1.7031   -1.3507 C.1       1 <0>        -0.1676
     24 C19         0.3666   -2.7650   -1.7331 C.1       1 <0>        -0.1210
     25 C20        -0.0274   -4.0604   -2.1995 C.ar      1 <0>         0.0032
     26 C21        -1.1183   -4.7108   -1.6212 C.ar      1 <0>        -0.0659
     27 C22        -1.4939   -5.9581   -2.0745 C.ar      1 <0>        -0.1512
     28 C23        -0.7901   -6.5654   -3.1023 C.ar      1 <0>         0.1093
     29 C24         0.2938   -5.9239   -3.6800 C.ar      1 <0>        -0.1515
     30 C25         0.6746   -4.6741   -3.2377 C.ar      1 <0>        -0.0664
     31 F1         -1.1619   -7.7874   -3.5423 F         1 <0>        -0.1349
     32 O3          1.0606    0.5725   -1.9434 O.3       1 <0>        -0.5350
     33 C26        -2.2215    1.6076    1.1190 C.ar      1 <0>        -0.1173
     34 C27        -2.6191    1.9888   -0.1494 C.ar      1 <0>        -0.0629
     35 C28        -2.8354    3.3225   -0.4354 C.ar      1 <0>        -0.1919
     36 C29        -2.6532    4.2815    0.5529 C.ar      1 <0>         0.2146
     37 C30        -2.2538    3.8951    1.8260 C.ar      1 <0>        -0.1955
     38 C31        -2.0446    2.5592    2.1067 C.ar      1 <0>        -0.0760
     39 N1         -2.8706    5.6313    0.2670 N.pl3     1 <0>        -0.6385
     40 C32        -3.4028    6.0268   -1.0393 C.3       1 <0>         0.0924
     41 C33        -2.5666    6.6514    1.2735 C.3       1 <0>         0.0886
     42 H4          1.1112    2.0220    0.1572 H         1 <0>         0.0509
     43 H5         -0.5418    1.9645   -0.5005 H         1 <0>         0.0765
     44 H6         -0.2831    1.9356    1.2603 H         1 <0>         0.0822
     45 H7         -1.7219   -0.2618   -0.6824 H         1 <0>         0.0801
     46 H8         -1.1819   -1.5764    0.3981 H         1 <0>         0.0704
     47 H9         -3.8503    0.3695    4.2123 H         1 <0>         0.0850
     48 H10        -3.6793   -0.7230    2.8142 H         1 <0>         0.0937
     49 H11        -4.7303   -1.7878    4.8759 H         1 <0>         0.0973
     50 H12        -3.2928   -2.6273    4.2527 H         1 <0>         0.1005
     51 H13        -1.1858   -0.9750    7.1181 H         1 <0>         0.1396
     52 H14         0.2242    1.2714    5.2567 H         1 <0>         0.0765
     53 H15         0.8168   -0.2455    5.9860 H         1 <0>         0.1185
     54 H16         2.5309    0.9786    1.4169 H         1 <0>         0.0761
     55 H17         3.0281   -0.6882    1.8560 H         1 <0>         0.0772
     56 H18         3.1639    0.2948   -0.7426 H         1 <0>         0.0846
     57 H19         2.9263   -1.4357   -0.3662 H         1 <0>         0.0751
     58 H20        -1.6672   -4.2385   -0.8199 H         1 <0>         0.1371
     59 H21        -2.3377   -6.4625   -1.6275 H         1 <0>         0.1424
     60 H22         0.8392   -6.4017   -4.4804 H         1 <0>         0.1424
     61 H23         1.5168   -4.1730   -3.6916 H         1 <0>         0.1373
     62 H24         1.6240    0.3367   -2.6931 H         1 <0>         0.3796
     63 H25        -2.7602    1.2427   -0.9174 H         1 <0>         0.1221
     64 H26        -3.1455    3.6195   -1.4263 H         1 <0>         0.1219
     65 H27        -2.1108    4.6383    2.5966 H         1 <0>         0.1218
     66 H28        -1.7384    2.2577    3.0975 H         1 <0>         0.1169
     67 H29        -4.4917    6.0484   -0.9967 H         1 <0>         0.0480
     68 H30        -3.0296    7.0175   -1.2988 H         1 <0>         0.0658
     69 H31        -3.0829    5.3088   -1.7945 H         1 <0>         0.0695
     70 H32        -2.2695    6.1669    2.2037 H         1 <0>         0.0774
     71 H33        -1.7528    7.2827    0.9167 H         1 <0>         0.0525
     72 H34        -3.4512    7.2636    1.4492 H         1 <0>         0.0553
@<TRIPOS>BOND
     1    1    2 1
     2    1   42 1
     3    1   43 1
     4    1   44 1
     5    2   18 1
     6    2   22 1
     7    2    3 1
     8    3    4 1
     9    3   45 1
    10    3   46 1
    11    4    5 1
    12    4    6 1
    13    4   33 1
    14    6   16 1
    15    6    7 2
    16    7   13 1
    17    7    8 1
    18    8    9 1
    19    8   47 1
    20    8   48 1
    21    9   10 1
    22    9   49 1
    23    9   50 1
    24   10   11 2
    25   10   12 1
    26   12   13 2
    27   12   51 1
    28   13   14 1
    29   14   15 1
    30   14   52 1
    31   14   53 1
    32   15   16 1
    33   16   17 1
    34   16   18 1
    35   18   19 1
    36   18   20 1
    37   20   21 1
    38   20   54 1
    39   20   55 1
    40   21   22 1
    41   21   56 1
    42   21   57 1
    43   22   23 1
    44   22   32 1
    45   23   24 3
    46   24   25 1
    47   25   30 ar
    48   25   26 ar
    49   26   27 ar
    50   26   58 1
    51   27   28 ar
    52   27   59 1
    53   28   29 ar
    54   28   31 1
    55   29   30 ar
    56   29   60 1
    57   30   61 1
    58   32   62 1
    59   33   38 ar
    60   33   34 ar
    61   34   35 ar
    62   34   63 1
    63   35   36 ar
    64   35   64 1
    65   36   37 ar
    66   36   39 1
    67   37   38 ar
    68   37   65 1
    69   38   66 1
    70   39   40 1
    71   39   41 1
    72   40   67 1
    73   40   68 1
    74   40   69 1
    75   41   70 1
    76   41   71 1
    77   41   72 1
@<TRIPOS>MOLECULE
CHEMBL233660
   40    42     0     0     0
SMALL
USER_CHARGES

@<TRIPOS>ATOM
      1 C1         -0.0187    1.5258    0.0104 C.3       1 <0>        -0.1768
      2 C2          0.0021   -0.0041    0.0020 C.3       1 <0>         0.1456
      3 C3          0.7182   -0.4975   -1.2568 C.3       1 <0>        -0.0444
      4 C4          0.8473   -1.9981   -1.2057 C.2       1 <0>        -0.1716
      5 C5          1.9038   -2.6938   -0.7566 C.2       1 <0>         0.0587
      6 N1          1.6589   -4.0357   -0.8647 N.pl3     1 <0>        -0.5938
      7 H1          2.2755   -4.7375   -0.6034 H         1 <0>         0.4160
      8 C6          0.4070   -4.2415   -1.3997 C.ar      1 <0>         0.0947
      9 C7         -0.1589   -2.9742   -1.6309 C.ar      1 <0>        -0.0946
     10 C8         -1.4421   -2.8724   -2.1708 C.ar      1 <0>        -0.0787
     11 C9         -2.1446   -4.0061   -2.4690 C.ar      1 <0>        -0.1428
     12 C10        -1.5925   -5.2585   -2.2390 C.ar      1 <0>        -0.1003
     13 C11        -0.3238   -5.3819   -1.7155 C.ar      1 <0>        -0.1287
     14 N2         -1.3723   -0.5112    0.0124 N.pl3     1 <0>        -1.0974
     15 S1         -2.0922   -0.9227    1.4458 S.o2      1 <0>         2.6819
     16 O1         -3.4112   -1.3471    1.1307 O.2       1 <0>        -0.9377
     17 O2         -1.1704   -1.7521    2.1399 O.2       1 <0>        -0.9315
     18 C12        -2.2513    0.5551    2.3921 C.ar      1 <0>        -0.6766
     19 C13        -1.2337    0.9437    3.2448 C.ar      1 <0>         0.0583
     20 C14        -1.3592    2.1042    3.9876 C.ar      1 <0>        -0.1287
     21 C15        -2.5013    2.8750    3.8781 C.ar      1 <0>        -0.0395
     22 C16        -3.5184    2.4873    3.0263 C.ar      1 <0>        -0.1283
     23 C17        -3.3914    1.3302    2.2784 C.ar      1 <0>         0.0612
     24 Cl1        -4.6657    0.8475    1.2028 Cl        1 <0>        -0.0114
     25 Cl2         0.2003   -0.0249    3.3832 Cl        1 <0>        -0.0119
     26 H2          1.0039    1.9031    0.0027 H         1 <0>         0.0732
     27 H3         -0.5459    1.8868   -0.8726 H         1 <0>         0.0675
     28 H4         -0.5289    1.8773    0.9072 H         1 <0>         0.0545
     29 H5          0.5293   -0.3651    0.8851 H         1 <0>         0.0950
     30 H6          0.1430   -0.2121   -2.1375 H         1 <0>         0.0792
     31 H7          1.7103   -0.0491   -1.3098 H         1 <0>         0.0862
     32 H8          2.8126   -2.2588   -0.3677 H         1 <0>         0.1686
     33 H9         -1.8784   -1.9011   -2.3518 H         1 <0>         0.1170
     34 H10        -3.1374   -3.9268   -2.8867 H         1 <0>         0.1232
     35 H11        -2.1603   -6.1452   -2.4792 H         1 <0>         0.1252
     36 H12         0.0966   -6.3610   -1.5391 H         1 <0>         0.1193
     37 H13        -1.8607   -0.6058   -0.8203 H         1 <0>         0.4174
     38 H14        -0.5647    2.4077    4.6533 H         1 <0>         0.1501
     39 H15        -2.5991    3.7805    4.4587 H         1 <0>         0.1516
     40 H16        -4.4107    3.0898    2.9415 H         1 <0>         0.1502
@<TRIPOS>BOND
     1    1    2 1
     2    1   26 1
     3    1   27 1
     4    1   28 1
     5    2    3 1
     6    2   14 1
     7    2   29 1
     8    3    4 1
     9    3   30 1
    10    3   31 1
    11    4    9 1
    12    4    5 2
    13    5    6 1
    14    5   32 1
    15    6    7 1
    16    6    8 1
    17    8   13 ar
    18    8    9 ar
    19    9   10 ar
    20   10   11 ar
    21   10   33 1
    22   11   12 ar
    23   11   34 1
    24   12   13 ar
    25   12   35 1
    26   13   36 1
    27   14   15 1
    28   14   37 1
    29   15   16 2
    30   15   17 2
    31   15   18 1
    32   18   23 ar
    33   18   19 ar
    34   19   20 ar
    35   19   25 1
    36   20   21 ar
    37   20   38 1
    38   21   22 ar
    39   21   39 1
    40   22   23 ar
    41   22   40 1
    42   23   24 1
@<TRIPOS>MOLECULE
CHEMBL233660__1
   40    42     0     0     0
SMALL
USER_CHARGES

@<TRIPOS>ATOM
      1 C1         -0.0187    1.5258    0.0104 C.3       1 <0>        -0.1737
      2 C2          0.0021   -0.0041    0.0020 C.3       1 <0>         0.1518
      3 C3         -1.4333   -0.5336    0.0129 C.3       1 <0>        -0.0505
      4 C4         -1.4136   -2.0361    0.1285 C.2       1 <0>        -0.1708
      5 C5         -1.4691   -2.9156   -0.8841 C.2       1 <0>         0.0584
      6 N1         -1.4280   -4.1930   -0.3954 N.pl3     1 <0>        -0.5931
      7 H1         -1.4549   -4.9977   -0.9363 H         1 <0>         0.4151
      8 C6         -1.3430   -4.1660    0.9787 C.ar      1 <0>         0.1002
      9 C7         -1.3238   -2.8137    1.3667 C.ar      1 <0>        -0.0983
     10 C8         -1.2355   -2.4782    2.7188 C.ar      1 <0>        -0.0718
     11 C9         -1.1644   -3.4667    3.6598 C.ar      1 <0>        -0.1456
     12 C10        -1.1789   -4.8021    3.2820 C.ar      1 <0>        -0.0987
     13 C11        -1.2748   -5.1556    1.9536 C.ar      1 <0>        -0.1311
     14 N2          0.6878   -0.4765   -1.2033 N.pl3     1 <0>        -1.1002
     15 S1          2.3004   -0.8489   -1.1463 S.o2      1 <0>         2.6821
     16 O1          2.6601   -1.2960   -2.4463 O.2       1 <0>        -0.9416
     17 O2          2.9475    0.2450   -0.5107 O.2       1 <0>        -0.9342
     18 C12         2.4778   -2.2331   -0.0707 C.ar      1 <0>        -0.6703
     19 C13         2.6800   -2.0356    1.2835 C.ar      1 <0>         0.0622
     20 C14         2.8193   -3.1230    2.1276 C.ar      1 <0>        -0.1223
     21 C15         2.7568   -4.4063    1.6181 C.ar      1 <0>        -0.0347
     22 C16         2.5548   -4.6042    0.2651 C.ar      1 <0>        -0.1278
     23 C17         2.4092   -3.5177   -0.5791 C.ar      1 <0>         0.0674
     24 Cl1         2.1477   -3.7666   -2.2772 Cl        1 <0>        -0.0184
     25 Cl2         2.7596   -0.4239    1.9235 Cl        1 <0>        -0.0122
     26 H2          1.0039    1.9031    0.0027 H         1 <0>         0.0726
     27 H3         -0.5459    1.8868   -0.8726 H         1 <0>         0.0641
     28 H4         -0.5289    1.8773    0.9072 H         1 <0>         0.0688
     29 H5          0.5293   -0.3651    0.8851 H         1 <0>         0.0850
     30 H6         -1.9701   -0.1109    0.8621 H         1 <0>         0.0862
     31 H7         -1.9334   -0.2470   -0.9122 H         1 <0>         0.0797
     32 H8         -1.5365   -2.6537   -1.9297 H         1 <0>         0.1656
     33 H9         -1.2230   -1.4412    3.0202 H         1 <0>         0.1190
     34 H10        -1.0962   -3.2067    4.7058 H         1 <0>         0.1205
     35 H11        -1.1213   -5.5720    4.0372 H         1 <0>         0.1226
     36 H12        -1.2841   -6.1976    1.6695 H         1 <0>         0.1165
     37 H13         0.1972   -0.5713   -2.0347 H         1 <0>         0.4176
     38 H14         2.9772   -2.9690    3.1849 H         1 <0>         0.1477
     39 H15         2.8663   -5.2548    2.2773 H         1 <0>         0.1478
     40 H16         2.5064   -5.6072   -0.1325 H         1 <0>         0.1442
@<TRIPOS>BOND
     1    1    2 1
     2    1   26 1
     3    1   27 1
     4    1   28 1
     5    2    3 1
     6    2   14 1
     7    2   29 1
     8    3    4 1
     9    3   30 1
    10    3   31 1
    11    4    9 1
    12    4    5 2
    13    5    6 1
    14    5   32 1
    15    6    7 1
    16    6    8 1
    17    8   13 ar
    18    8    9 ar
    19    9   10 ar
    20   10   11 ar
    21   10   33 1
    22   11   12 ar
    23   11   34 1
    24   12   13 ar
    25   12   35 1
    26   13   36 1
    27   14   15 1
    28   14   37 1
    29   15   16 2
    30   15   17 2
    31   15   18 1
    32   18   23 ar
    33   18   19 ar
    34   19   20 ar
    35   19   25 1
    36   20   21 ar
    37   20   38 1
    38   21   22 ar
    39   21   39 1
    40   22   23 ar
    41   22   40 1
    42   23   24 1
@<TRIPOS>MOLECULE
CHEMBL329339
   38    41     0     0     0
SMALL
USER_CHARGES

@<TRIPOS>ATOM
      1 C1         -0.0184    1.5028    0.0103 C.3       1 <0>        -0.1173
      2 C2          0.0021   -0.0041    0.0020 C.2       1 <0>        -0.0522
      3 C3          0.0057   -0.6646   -1.1489 C.2       1 <0>        -0.1844
      4 C4          0.0102   -2.1696   -1.1825 C.3       1 <0>         0.2169
      5 N1          0.6726   -2.6967    0.0174 N.pl3     1 <0>        -0.7414
      6 C5          0.3675   -2.1176    1.2518 C.ar      1 <0>         0.2539
      7 C6          0.0243   -0.7528    1.2744 C.ar      1 <0>        -0.1394
      8 C7         -0.2886   -0.1386    2.4778 C.ar      1 <0>        -0.0108
      9 C8         -0.2502   -0.8801    3.6557 C.ar      1 <0>        -0.1473
     10 C9         -0.5195   -0.5442    5.0667 C.ar      1 <0>        -0.0909
     11 C10        -0.9060    0.6261    5.7151 C.ar      1 <0>        -0.0687
     12 C11        -1.0829    0.6248    7.0821 C.ar      1 <0>        -0.1473
     13 C12        -0.8771   -0.5363    7.8113 C.ar      1 <0>        -0.0901
     14 C13        -0.4940   -1.7012    7.1816 C.ar      1 <0>        -0.1406
     15 C14        -0.3105   -1.7197    5.8025 C.ar      1 <0>         0.1321
     16 N2          0.0628   -2.7235    4.9254 N.pl3     1 <0>        -0.6179
     17 H1          0.2670   -3.6363    5.1823 H         1 <0>         0.4163
     18 C15         0.1032   -2.2391    3.6304 C.ar      1 <0>         0.1880
     19 C16         0.4026   -2.8496    2.4189 C.ar      1 <0>        -0.2134
     20 C17         0.7600   -2.6475   -2.4276 C.3       1 <0>        -0.1522
     21 C18        -1.4310   -2.6808   -1.2329 C.3       1 <0>        -0.1578
     22 H2          1.0042    1.8801    0.0026 H         1 <0>         0.0708
     23 H3         -0.5455    1.8639   -0.8728 H         1 <0>         0.0674
     24 H4         -0.5286    1.8543    0.9071 H         1 <0>         0.0675
     25 H5          0.0049   -0.1130   -2.0775 H         1 <0>         0.1218
     26 H6          1.3058   -3.4289   -0.0453 H         1 <0>         0.4019
     27 H7         -0.5604    0.9063    2.5011 H         1 <0>         0.1293
     28 H8         -1.0663    1.5317    5.1488 H         1 <0>         0.1241
     29 H9         -1.3824    1.5314    7.5870 H         1 <0>         0.1260
     30 H10        -1.0178   -0.5279    8.8820 H         1 <0>         0.1279
     31 H11        -0.3359   -2.5999    7.7592 H         1 <0>         0.1224
     32 H12         0.6747   -3.8945    2.3941 H         1 <0>         0.1238
     33 H13         1.7860   -2.2808   -2.3970 H         1 <0>         0.0630
     34 H14         0.7642   -3.7372   -2.4534 H         1 <0>         0.0624
     35 H15         0.2639   -2.2649   -3.3196 H         1 <0>         0.0741
     36 H16        -1.9211   -2.2981   -2.1281 H         1 <0>         0.0656
     37 H17        -1.4293   -3.7705   -1.2572 H         1 <0>         0.0587
     38 H18        -1.9692   -2.3379   -0.3493 H         1 <0>         0.0576
@<TRIPOS>BOND
     1    1    2 1
     2    1   22 1
     3    1   23 1
     4    1   24 1
     5    2    7 1
     6    2    3 2
     7    3    4 1
     8    3   25 1
     9    4    5 1
    10    4   20 1
    11    4   21 1
    12    5    6 1
    13    5   26 1
    14    6   19 ar
    15    6    7 ar
    16    7    8 ar
    17    8    9 ar
    18    8   27 1
    19    9   18 ar
    20    9   10 1
    21   10   15 ar
    22   10   11 ar
    23   11   12 ar
    24   11   28 1
    25   12   13 ar
    26   12   29 1
    27   13   14 ar
    28   13   30 1
    29   14   15 ar
    30   14   31 1
    31   15   16 1
    32   16   17 1
    33   16   18 1
    34   18   19 ar
    35   19   32 1
    36   20   33 1
    37   20   34 1
    38   20   35 1
    39   21   36 1
    40   21   37 1
    41   21   38 1
@<TRIPOS>MOLECULE
CHEMBL372181
   56    59     0     0     0
SMALL
USER_CHARGES

@<TRIPOS>ATOM
      1 C1         -0.7790    1.7249    0.5146 C.3       1 <0>        -0.1355
      2 C2         -0.3302    0.3393    0.0461 C.3       1 <0>        -0.0126
      3 C3          0.8591   -0.1240    0.8899 C.3       1 <0>        -0.1607
      4 C4         -1.4851   -0.6516    0.2051 C.3       1 <0>        -0.1249
      5 C5         -2.0202   -0.5857    1.6370 C.3       1 <0>         0.1773
      6 C6         -0.9519   -1.0478    2.5942 C.ar      1 <0>        -0.0848
      7 C7         -0.0799   -2.0543    2.2233 C.ar      1 <0>        -0.0877
      8 C8          0.9001   -2.4781    3.1013 C.ar      1 <0>        -0.1262
      9 C9          1.0082   -1.8953    4.3501 C.ar      1 <0>        -0.1055
     10 C10         0.1368   -0.8883    4.7207 C.ar      1 <0>        -0.1255
     11 C11        -0.8404   -0.4614    3.8411 C.ar      1 <0>        -0.0913
     12 C12        -3.2281   -1.4780    1.7634 C.2       1 <0>         0.4965
     13 O1         -3.3682   -2.4191    1.0114 O.2       1 <0>        -0.4979
     14 N1         -4.1526   -1.2301    2.7122 N.am      1 <0>        -0.6637
     15 C13        -5.2113   -2.1170    2.9025 C.ar      1 <0>         0.1913
     16 C14        -5.0167   -3.4821    2.7139 C.ar      1 <0>        -0.1298
     17 C15        -6.0580   -4.3631    2.9002 C.ar      1 <0>        -0.0084
     18 C16        -7.3146   -3.8843    3.2799 C.ar      1 <0>        -0.2136
     19 C17        -7.5031   -2.5100    3.4679 C.ar      1 <0>        -0.0802
     20 C18        -6.4607   -1.6362    3.2866 C.ar      1 <0>        -0.1270
     21 C19        -8.9464   -2.3354    3.8672 C.3       1 <0>         0.0917
     22 O2         -9.5277   -3.6419    3.8897 O.3       1 <0>        -0.3145
     23 C20        -8.5980   -4.5515    3.5524 C.2       1 <0>         0.5232
     24 O3         -8.7888   -5.7495    3.4830 O.2       1 <0>        -0.4483
     25 O4         -2.3875    0.7600    1.9467 O.3       1 <0>        -0.5367
     26 C21         0.0779    0.4067   -1.4030 C.ar      1 <0>        -0.0692
     27 C22        -0.5824   -0.3616   -2.3435 C.ar      1 <0>        -0.1259
     28 C23        -0.2081   -0.2997   -3.6727 C.ar      1 <0>        -0.1169
     29 C24         0.8264    0.5308   -4.0615 C.ar      1 <0>        -0.1256
     30 C25         1.4862    1.2997   -3.1211 C.ar      1 <0>        -0.1175
     31 C26         1.1090    1.2410   -1.7925 C.ar      1 <0>        -0.1144
     32 H1         -0.1021    2.4803    0.1153 H         1 <0>         0.0457
     33 H2         -1.7907    1.9189    0.1584 H         1 <0>         0.0499
     34 H3         -0.7637    1.7628    1.6038 H         1 <0>         0.0863
     35 H4          0.5820   -0.1152    1.9441 H         1 <0>         0.0855
     36 H5          1.1406   -1.1354    0.5967 H         1 <0>         0.0587
     37 H6          1.7018    0.5485    0.7301 H         1 <0>         0.0518
     38 H7         -2.2822   -0.3955   -0.4928 H         1 <0>         0.0791
     39 H8         -1.1295   -1.6606   -0.0038 H         1 <0>         0.0911
     40 H9         -0.1644   -2.5096    1.2476 H         1 <0>         0.1285
     41 H10         1.5809   -3.2649    2.8118 H         1 <0>         0.1265
     42 H11         1.7734   -2.2270    5.0364 H         1 <0>         0.1243
     43 H12         0.2211   -0.4331    5.6965 H         1 <0>         0.1252
     44 H13        -1.5189    0.3279    4.1292 H         1 <0>         0.1311
     45 H14        -4.0814   -0.4346    3.2627 H         1 <0>         0.4206
     46 H15        -4.0453   -3.8515    2.4200 H         1 <0>         0.1472
     47 H16        -5.9041   -5.4219    2.7528 H         1 <0>         0.1423
     48 H17        -6.6100   -0.5773    3.4374 H         1 <0>         0.1410
     49 H18        -9.0075   -1.8829    4.8569 H         1 <0>         0.1189
     50 H19        -9.4621   -1.7102    3.1383 H         1 <0>         0.1185
     51 H20        -3.0726    1.1236    1.3691 H         1 <0>         0.3859
     52 H21        -1.3906   -1.0104   -2.0398 H         1 <0>         0.1242
     53 H22        -0.7235   -0.9004   -4.4075 H         1 <0>         0.1206
     54 H23         1.1194    0.5786   -5.0999 H         1 <0>         0.1201
     55 H24         2.2946    1.9482   -3.4248 H         1 <0>         0.1208
     56 H25         1.6220    1.8446   -1.0584 H         1 <0>         0.1204
@<TRIPOS>BOND
     1    1    2 1
     2    1   32 1
     3    1   33 1
     4    1   34 1
     5    2    3 1
     6    2    4 1
     7    2   26 1
     8    3   35 1
     9    3   36 1
    10    3   37 1
    11    4    5 1
    12    4   38 1
    13    4   39 1
    14    5    6 1
    15    5   12 1
    16    5   25 1
    17    6   11 ar
    18    6    7 ar
    19    7    8 ar
    20    7   40 1
    21    8    9 ar
    22    8   41 1
    23    9   10 ar
    24    9   42 1
    25   10   11 ar
    26   10   43 1
    27   11   44 1
    28   12   13 2
    29   12   14 am
    30   14   15 1
    31   14   45 1
    32   15   20 ar
    33   15   16 ar
    34   16   17 ar
    35   16   46 1
    36   17   18 ar
    37   17   47 1
    38   18   23 1
    39   18   19 ar
    40   19   20 ar
    41   19   21 1
    42   20   48 1
    43   21   22 1
    44   21   49 1
    45   21   50 1
    46   22   23 1
    47   23   24 2
    48   25   51 1
    49   26   31 ar
    50   26   27 ar
    51   27   28 ar
    52   27   52 1
    53   28   29 ar
    54   28   53 1
    55   29   30 ar
    56   29   54 1
    57   30   31 ar
    58   30   55 1
    59   31   56 1
@<TRIPOS>MOLECULE
CHEMBL372181__1
   56    59     0     0     0
SMALL
USER_CHARGES

@<TRIPOS>ATOM
      1 C1         -0.3493    0.9758    1.0327 C.3       1 <0>        -0.1624
      2 C2         -0.2571   -0.4772    0.5624 C.3       1 <0>        -0.0113
      3 C3         -0.1223   -1.3986    1.7765 C.3       1 <0>        -0.1451
      4 C4         -1.5221   -0.8423   -0.2169 C.3       1 <0>        -0.1222
      5 C5         -2.7478   -0.6386    0.6759 C.3       1 <0>         0.1752
      6 C6         -2.8617    0.8173    1.0481 C.ar      1 <0>        -0.0723
      7 C7         -2.7014    1.7924    0.0815 C.ar      1 <0>        -0.0997
      8 C8         -2.8059    3.1278    0.4229 C.ar      1 <0>        -0.1189
      9 C9         -3.0711    3.4881    1.7309 C.ar      1 <0>        -0.1102
     10 C10        -3.2322    2.5130    2.6973 C.ar      1 <0>        -0.1223
     11 C11        -3.1320    1.1774    2.3551 C.ar      1 <0>        -0.0986
     12 C12        -3.9872   -1.0655   -0.0675 C.2       1 <0>         0.4973
     13 O1         -4.0008   -1.0551   -1.2801 O.2       1 <0>        -0.4978
     14 N1         -5.0806   -1.4589    0.6154 N.am      1 <0>        -0.6631
     15 C13        -6.1881   -1.9573   -0.0692 C.ar      1 <0>         0.1917
     16 C14        -6.0099   -2.6916   -1.2380 C.ar      1 <0>        -0.1318
     17 C15        -7.0993   -3.1865   -1.9188 C.ar      1 <0>        -0.0082
     18 C16        -8.3884   -2.9503   -1.4339 C.ar      1 <0>        -0.2140
     19 C17        -8.5601   -2.2110   -0.2577 C.ar      1 <0>        -0.0794
     20 C18        -7.4709   -1.7245    0.4205 C.ar      1 <0>        -0.1269
     21 C19       -10.0472   -2.1432   -0.0183 C.3       1 <0>         0.0914
     22 O2        -10.6689   -2.8602   -1.0882 O.3       1 <0>        -0.3144
     23 C20        -9.7244   -3.3347   -1.9176 C.2       1 <0>         0.5232
     24 O3         -9.9413   -3.9860   -2.9202 O.2       1 <0>        -0.4485
     25 O4         -2.6092   -1.4240    1.8616 O.3       1 <0>        -0.5363
     26 C21         0.9470   -0.6413   -0.3288 C.ar      1 <0>        -0.0690
     27 C22         0.7870   -1.0603   -1.6364 C.ar      1 <0>        -0.1255
     28 C23         1.8914   -1.2108   -2.4540 C.ar      1 <0>        -0.1168
     29 C24         3.1558   -0.9419   -1.9641 C.ar      1 <0>        -0.1257
     30 C25         3.3157   -0.5221   -0.6568 C.ar      1 <0>        -0.1175
     31 C26         2.2109   -0.3675    0.1595 C.ar      1 <0>        -0.1147
     32 H1          0.6064    1.2812    1.4586 H         1 <0>         0.0498
     33 H2         -0.5910    1.6173    0.1852 H         1 <0>         0.0613
     34 H3         -1.1291    1.0641    1.7892 H         1 <0>         0.0867
     35 H4         -0.8245   -1.0862    2.5494 H         1 <0>         0.0887
     36 H5         -0.3409   -2.4245    1.4801 H         1 <0>         0.0493
     37 H6          0.8946   -1.3414    2.1648 H         1 <0>         0.0500
     38 H7         -1.6035   -0.2044   -1.0969 H         1 <0>         0.0914
     39 H8         -1.4687   -1.8856   -0.5282 H         1 <0>         0.0779
     40 H9         -2.4943    1.5109   -0.9404 H         1 <0>         0.1260
     41 H10        -2.6800    3.8897   -0.3321 H         1 <0>         0.1257
     42 H11        -3.1520    4.5315    1.9978 H         1 <0>         0.1239
     43 H12        -3.4391    2.7945    3.7193 H         1 <0>         0.1253
     44 H13        -3.2616    0.4154    3.1094 H         1 <0>         0.1347
     45 H14        -5.0970   -1.3952    1.5831 H         1 <0>         0.4211
     46 H15        -5.0134   -2.8735   -1.6125 H         1 <0>         0.1475
     47 H16        -6.9580   -3.7557   -2.8257 H         1 <0>         0.1425
     48 H17        -7.6084   -1.1587    1.3301 H         1 <0>         0.1407
     49 H18       -10.2930   -2.6097    0.9358 H         1 <0>         0.1191
     50 H19       -10.3788   -1.1049   -0.0227 H         1 <0>         0.1186
     51 H20        -2.5306   -2.3737    1.6974 H         1 <0>         0.3874
     52 H21        -0.2008   -1.2703   -2.0192 H         1 <0>         0.1241
     53 H22         1.7665   -1.5388   -3.4754 H         1 <0>         0.1207
     54 H23         4.0188   -1.0602   -2.6027 H         1 <0>         0.1201
     55 H24         4.3035   -0.3124   -0.2739 H         1 <0>         0.1207
     56 H25         2.3354   -0.0359    1.1798 H         1 <0>         0.1203
@<TRIPOS>BOND
     1    1    2 1
     2    1   32 1
     3    1   33 1
     4    1   34 1
     5    2    3 1
     6    2    4 1
     7    2   26 1
     8    3   35 1
     9    3   36 1
    10    3   37 1
    11    4    5 1
    12    4   38 1
    13    4   39 1
    14    5    6 1
    15    5   12 1
    16    5   25 1
    17    6   11 ar
    18    6    7 ar
    19    7    8 ar
    20    7   40 1
    21    8    9 ar
    22    8   41 1
    23    9   10 ar
    24    9   42 1
    25   10   11 ar
    26   10   43 1
    27   11   44 1
    28   12   13 2
    29   12   14 am
    30   14   15 1
    31   14   45 1
    32   15   20 ar
    33   15   16 ar
    34   16   17 ar
    35   16   46 1
    36   17   18 ar
    37   17   47 1
    38   18   23 1
    39   18   19 ar
    40   19   20 ar
    41   19   21 1
    42   20   48 1
    43   21   22 1
    44   21   49 1
    45   21   50 1
    46   22   23 1
    47   23   24 2
    48   25   51 1
    49   26   31 ar
    50   26   27 ar
    51   27   28 ar
    52   27   52 1
    53   28   29 ar
    54   28   53 1
    55   29   30 ar
    56   29   54 1
    57   30   31 ar
    58   30   55 1
    59   31   56 1
@<TRIPOS>MOLECULE
CHEMBL559581
   42    44     0     0     0
SMALL
USER_CHARGES

@<TRIPOS>ATOM
      1 C1         -0.7505    1.1290   -0.7639 C.3       1 <0>        -0.0611
      2 C2         -0.5297   -0.3315   -0.4649 C.2       1 <0>         0.1660
      3 N1         -0.4225   -1.2901   -1.3406 N.2       1 <0>        -0.2882
      4 N2         -0.2394   -2.4077   -0.7299 N.2       1 <0>        -0.2749
      5 C3         -0.2235   -2.2001    0.5561 C.2       1 <0>         0.1444
      6 O1         -0.4015   -0.8831    0.7535 O.3       1 <0>        -0.2235
      7 C4         -0.0346   -3.2448    1.6257 C.3       1 <0>         0.2672
      8 C5          1.4364   -3.6627    1.6763 C.3       1 <0>        -0.1643
      9 N3         -0.8639   -4.4130    1.3193 N.pl3     1 <0>        -0.6407
     10 C6         -0.5707   -5.2302    0.1393 C.3       1 <0>         0.1664
     11 C7          0.2820   -6.4058    0.5417 C.ar      1 <0>        -0.0972
     12 C8          1.6520   -6.3593    0.3633 C.ar      1 <0>        -0.0950
     13 C9          2.4342   -7.4375    0.7323 C.ar      1 <0>        -0.1166
     14 C10         1.8470   -8.5631    1.2800 C.ar      1 <0>        -0.1038
     15 C11         0.4775   -8.6107    1.4588 C.ar      1 <0>        -0.1121
     16 C12        -0.3055   -7.5294    1.0948 C.ar      1 <0>        -0.0216
     17 Cl1        -2.0252   -7.5859    1.3252 Cl        1 <0>        -0.0620
     18 C13        -1.9303   -4.7464    2.1494 C.ar      1 <0>         0.2223
     19 C14        -1.6880   -5.1907    3.4465 C.ar      1 <0>        -0.1253
     20 C15        -2.7392   -5.5214    4.2705 C.ar      1 <0>        -0.0420
     21 C16        -4.0530   -5.4111    3.8041 C.ar      1 <0>        -0.0302
     22 C17        -4.2935   -4.9643    2.5001 C.ar      1 <0>         0.0188
     23 C18        -3.2354   -4.6295    1.6827 C.ar      1 <0>        -0.1244
     24 Cl2        -5.9220   -4.8257    1.9150 Cl        1 <0>        -0.0478
     25 C19        -5.1494   -5.7549    4.6588 C.1       1 <0>         0.2474
     26 N4         -6.0191   -6.0276    5.3368 N.1       1 <0>        -0.3966
     27 H1          0.2128    1.6263   -0.8773 H         1 <0>         0.1005
     28 H2         -1.3216    1.2286   -1.6870 H         1 <0>         0.1080
     29 H3         -1.3023    1.5884    0.0561 H         1 <0>         0.0937
     30 H4         -0.3289   -2.8335    2.5913 H         1 <0>         0.1145
     31 H5          2.0391   -2.8280    2.0344 H         1 <0>         0.0732
     32 H6          1.5504   -4.5097    2.3529 H         1 <0>         0.0853
     33 H7          1.7676   -3.9480    0.6779 H         1 <0>         0.0744
     34 H8         -1.5037   -5.5897   -0.2946 H         1 <0>         0.0837
     35 H9         -0.0363   -4.6284   -0.5958 H         1 <0>         0.1087
     36 H10         2.1112   -5.4806   -0.0647 H         1 <0>         0.1328
     37 H11         3.5045   -7.4009    0.5925 H         1 <0>         0.1284
     38 H12         2.4586   -9.4053    1.5678 H         1 <0>         0.1305
     39 H13         0.0188   -9.4901    1.8863 H         1 <0>         0.1318
     40 H14        -0.6733   -5.2762    3.8063 H         1 <0>         0.1414
     41 H15        -2.5499   -5.8662    5.2763 H         1 <0>         0.1453
     42 H16        -3.4197   -4.2804    0.6775 H         1 <0>         0.1425
@<TRIPOS>BOND
     1    1    2 1
     2    1   27 1
     3    1   28 1
     4    1   29 1
     5    2    6 1
     6    2    3 2
     7    3    4 1
     8    4    5 2
     9    5    6 1
    10    5    7 1
    11    7    8 1
    12    7    9 1
    13    7   30 1
    14    8   31 1
    15    8   32 1
    16    8   33 1
    17    9   10 1
    18    9   18 1
    19   10   11 1
    20   10   34 1
    21   10   35 1
    22   11   16 ar
    23   11   12 ar
    24   12   13 ar
    25   12   36 1
    26   13   14 ar
    27   13   37 1
    28   14   15 ar
    29   14   38 1
    30   15   16 ar
    31   15   39 1
    32   16   17 1
    33   18   23 ar
    34   18   19 ar
    35   19   20 ar
    36   19   40 1
    37   20   21 ar
    38   20   41 1
    39   21   22 ar
    40   21   25 1
    41   22   23 ar
    42   22   24 1
    43   23   42 1
    44   25   26 3
@<TRIPOS>MOLECULE
CHEMBL559581__1
   42    44     0     0     0
SMALL
USER_CHARGES

@<TRIPOS>ATOM
      1 C1         -3.6940   -4.3529    4.4010 C.3       1 <0>        -0.0610
      2 C2         -2.3556   -4.3639    3.7085 C.2       1 <0>         0.1649
      3 N1         -1.3665   -5.1750    3.9555 N.2       1 <0>        -0.2878
      4 N2         -0.3818   -4.8977    3.1751 N.2       1 <0>        -0.2553
      5 C3         -0.7092   -3.9003    2.4037 C.2       1 <0>         0.1346
      6 O1         -1.9655   -3.5429    2.7190 O.3       1 <0>        -0.2196
      7 C4          0.1596   -3.2671    1.3476 C.3       1 <0>         0.2457
      8 C5          0.7969   -1.9938    1.9076 C.3       1 <0>        -0.1802
      9 N3          1.2118   -4.2069    0.9529 N.pl3     1 <0>        -0.5962
     10 C6          1.2821   -4.6898   -0.4284 C.3       1 <0>         0.1556
     11 C7          0.5703   -6.0139   -0.5345 C.ar      1 <0>        -0.1057
     12 C8          1.2949   -7.1911   -0.5242 C.ar      1 <0>        -0.0868
     13 C9          0.6422   -8.4056   -0.6215 C.ar      1 <0>        -0.1098
     14 C10        -0.7357   -8.4438   -0.7291 C.ar      1 <0>        -0.0988
     15 C11        -1.4612   -7.2676   -0.7395 C.ar      1 <0>        -0.1111
     16 C12        -0.8087   -6.0517   -0.6364 C.ar      1 <0>        -0.0204
     17 Cl1        -1.7198   -4.5741   -0.6428 Cl        1 <0>        -0.0725
     18 C13         2.1447   -4.6410    1.8903 C.ar      1 <0>         0.2586
     19 C14         2.0006   -4.2864    3.2289 C.ar      1 <0>        -0.1510
     20 C15         2.9204   -4.7134    4.1590 C.ar      1 <0>        -0.0167
     21 C16         4.0018   -5.5047    3.7588 C.ar      1 <0>        -0.0720
     22 C17         4.1441   -5.8595    2.4128 C.ar      1 <0>         0.0492
     23 C18         3.2154   -5.4326    1.4881 C.ar      1 <0>        -0.1839
     24 Cl2         5.4845   -6.8411    1.9095 Cl        1 <0>        -0.0521
     25 C19         4.9612   -5.9503    4.7240 C.1       1 <0>         0.2559
     26 N4          5.7223   -6.3039    5.4896 N.1       1 <0>        -0.4133
     27 H1         -4.3816   -5.0139    3.8733 H         1 <0>         0.0995
     28 H2         -3.5746   -4.6978    5.4280 H         1 <0>         0.1081
     29 H3         -4.0940   -3.3389    4.4024 H         1 <0>         0.0935
     30 H4         -0.4488   -3.0169    0.4785 H         1 <0>         0.1261
     31 H5          1.3075   -1.4602    1.1059 H         1 <0>         0.0875
     32 H6          0.0217   -1.3560    2.3324 H         1 <0>         0.0777
     33 H7          1.5156   -2.2581    2.6834 H         1 <0>         0.0848
     34 H8          0.8056   -3.9671   -1.0907 H         1 <0>         0.0991
     35 H9          2.3258   -4.8143   -0.7171 H         1 <0>         0.1017
     36 H10         2.3712   -7.1618   -0.4405 H         1 <0>         0.1341
     37 H11         1.2087   -9.3250   -0.6137 H         1 <0>         0.1326
     38 H12        -1.2452   -9.3930   -0.8054 H         1 <0>         0.1335
     39 H13        -2.5374   -7.2976   -0.8239 H         1 <0>         0.1321
     40 H14         1.1656   -3.6750    3.5378 H         1 <0>         0.1388
     41 H15         2.8076   -4.4373    5.1970 H         1 <0>         0.1389
     42 H16         3.3216   -5.7094    0.4496 H         1 <0>         0.1418
@<TRIPOS>BOND
     1    1    2 1
     2    1   27 1
     3    1   28 1
     4    1   29 1
     5    2    6 1
     6    2    3 2
     7    3    4 1
     8    4    5 2
     9    5    6 1
    10    5    7 1
    11    7    8 1
    12    7    9 1
    13    7   30 1
    14    8   31 1
    15    8   32 1
    16    8   33 1
    17    9   10 1
    18    9   18 1
    19   10   11 1
    20   10   34 1
    21   10   35 1
    22   11   16 ar
    23   11   12 ar
    24   12   13 ar
    25   12   36 1
    26   13   14 ar
    27   13   37 1
    28   14   15 ar
    29   14   38 1
    30   15   16 ar
    31   15   39 1
    32   16   17 1
    33   18   23 ar
    34   18   19 ar
    35   19   20 ar
    36   19   40 1
    37   20   21 ar
    38   20   41 1
    39   21   22 ar
    40   21   25 1
    41   22   23 ar
    42   22   24 1
    43   23   42 1
    44   25   26 3
@<TRIPOS>MOLECULE
CHEMBL28157
   41    44     0     0     0
SMALL
USER_CHARGES

@<TRIPOS>ATOM
      1 C1         -0.0168    1.3896    0.0097 C.ar      1 <0>        -0.0709
      2 C2          1.1633    2.0992    0.0022 C.ar      1 <0>        -0.1197
      3 C3          2.3869    1.4303   -0.0136 C.ar      1 <0>         0.1216
      4 C4          2.3982    0.0384   -0.0215 C.ar      1 <0>        -0.1153
      5 C5          1.2247   -0.6762   -0.0137 C.ar      1 <0>        -0.0488
      6 C6          0.0021   -0.0041    0.0020 C.ar      1 <0>        -0.0606
      7 C7         -1.2697   -0.7680    0.0110 C.ar      1 <0>        -0.0071
      8 C8         -2.4868   -0.0941    0.0214 C.ar      1 <0>        -0.0756
      9 C9         -3.6786   -0.8174    0.0299 C.ar      1 <0>         0.0137
     10 C10        -3.6442   -2.2139    0.0279 C.ar      1 <0>        -0.1081
     11 C11        -2.4312   -2.8768    0.0175 C.ar      1 <0>         0.1128
     12 C12        -1.2466   -2.1619    0.0033 C.ar      1 <0>        -0.1203
     13 F1         -2.4023   -4.2275    0.0156 F         1 <0>        -0.1273
     14 C13        -4.9350   -0.1305    0.0410 C.1       1 <0>         0.2474
     15 N1         -5.9318    0.4145    0.0499 N.1       1 <0>        -0.3942
     16 C14         3.8504   -0.3690   -0.0387 C.3       1 <0>        -0.0114
     17 C15         4.1906   -1.1807    1.2072 C.3       1 <0>        -0.0884
     18 C16         5.6740   -1.5573    1.1851 C.3       1 <0>        -0.1461
     19 C17         5.9722   -2.3758   -0.0728 C.3       1 <0>        -0.1074
     20 C18         5.6483   -1.5418   -1.3140 C.3       1 <0>        -0.1460
     21 C19         4.1648   -1.1654   -1.3013 C.3       1 <0>        -0.0884
     22 C20         4.6073    0.9375   -0.0386 C.2       1 <0>         0.2590
     23 N2          3.6916    1.9223   -0.0238 N.pl3     1 <0>        -0.5901
     24 S1          6.1962    1.1163   -0.0524 S.2       1 <0>        -0.3470
     25 H1         -0.9604    1.9148    0.0260 H         1 <0>         0.1407
     26 H2          1.1411    3.1789    0.0083 H         1 <0>         0.1350
     27 H3          1.2485   -1.7559   -0.0198 H         1 <0>         0.1371
     28 H4         -2.5083    0.9857    0.0233 H         1 <0>         0.1445
     29 H5         -4.5662   -2.7762    0.0348 H         1 <0>         0.1495
     30 H6         -0.3018   -2.6849   -0.0096 H         1 <0>         0.1479
     31 H7          3.9802   -0.5862    2.0963 H         1 <0>         0.0641
     32 H8          3.5861   -2.0875    1.2259 H         1 <0>         0.0791
     33 H9          6.2792   -0.6507    1.1807 H         1 <0>         0.1018
     34 H10         5.9121   -2.1492    2.0688 H         1 <0>         0.0643
     35 H11         7.0268   -2.6513   -0.0853 H         1 <0>         0.0654
     36 H12         5.3611   -3.2784   -0.0721 H         1 <0>         0.0543
     37 H13         6.2534   -0.6352   -1.3108 H         1 <0>         0.1017
     38 H14         5.8683   -2.1227   -2.2098 H         1 <0>         0.0643
     39 H15         3.5601   -2.0721   -1.3187 H         1 <0>         0.0792
     40 H16         3.9363   -0.5601   -2.1786 H         1 <0>         0.0641
     41 H17         3.9132    2.8666   -0.0206 H         1 <0>         0.4254
@<TRIPOS>BOND
     1    1    6 ar
     2    1    2 ar
     3    1   25 1
     4    2    3 ar
     5    2   26 1
     6    3   23 1
     7    3    4 ar
     8    4    5 ar
     9    4   16 1
    10    5    6 ar
    11    5   27 1
    12    6    7 1
    13    7   12 ar
    14    7    8 ar
    15    8    9 ar
    16    8   28 1
    17    9   10 ar
    18    9   14 1
    19   10   11 ar
    20   10   29 1
    21   11   12 ar
    22   11   13 1
    23   12   30 1
    24   14   15 3
    25   16   21 1
    26   16   17 1
    27   16   22 1
    28   17   18 1
    29   17   31 1
    30   17   32 1
    31   18   19 1
    32   18   33 1
    33   18   34 1
    34   19   20 1
    35   19   35 1
    36   19   36 1
    37   20   21 1
    38   20   37 1
    39   20   38 1
    40   21   39 1
    41   21   40 1
    42   22   23 1
    43   22   24 2
    44   23   41 1
@<TRIPOS>MOLECULE
CHEMBL239957
   41    44     0     0     0
SMALL
USER_CHARGES

@<TRIPOS>ATOM
      1 C1          0.6124    1.4569   -0.1334 C.3       1 <0>         0.0535
      2 N1          1.4240    0.2418   -0.0278 N.pl3     1 <0>        -0.4135
      3 C2          1.9807   -0.4472   -1.0818 C.2       1 <0>         0.0635
      4 C3          2.6675   -1.5297   -0.5687 C.2       1 <0>        -0.1080
      5 C4          2.5252   -1.4966    0.8180 C.2       1 <0>        -0.1708
      6 C5          1.7606   -0.3945    1.1336 C.2       1 <0>         0.0868
      7 C6          1.3689    0.0254    2.4946 C.ar      1 <0>         0.0002
      8 C7          0.9914    1.3496    2.7366 C.ar      1 <0>        -0.1083
      9 C8          0.6257    1.7439    4.0048 C.ar      1 <0>        -0.0848
     10 C9          0.6311    0.8261    5.0471 C.ar      1 <0>         0.0772
     11 C10         1.0076   -0.4997    4.8119 C.ar      1 <0>         0.0852
     12 C11         1.3700   -0.9008    3.5383 C.ar      1 <0>        -0.0713
     13 N2          0.9137   -1.1666    6.0313 N.pl3     1 <0>        -0.4607
     14 C12         0.4998   -0.2880    6.9636 C.2       1 <0>         0.4962
     15 S1          0.2395   -0.6536    8.6158 S.2       1 <0>        -0.5666
     16 N3          0.3211    0.9214    6.4001 N.pl3     1 <0>        -0.5762
     17 H1          0.0266    1.7233    6.8595 H         1 <0>         0.4477
     18 C13         1.2137   -2.5822    6.2600 C.3       1 <0>         0.1433
     19 C14         2.5340   -2.7225    7.0455 C.3       1 <0>        -0.1314
     20 C15         2.0852   -2.8581    8.5217 C.3       1 <0>        -0.1457
     21 C16         0.8067   -3.7256    8.4120 C.3       1 <0>        -0.1010
     22 C17         0.1155   -3.2200    7.1289 C.3       1 <0>        -0.1347
     23 C18         1.8667   -0.1024   -2.4670 C.1       1 <0>         0.2746
     24 N4          1.7763    0.1711   -3.5658 N.1       1 <0>        -0.3989
     25 H2          1.2476    2.3315    0.0072 H         1 <0>         0.0878
     26 H3          0.1484    1.4994   -1.1188 H         1 <0>         0.0898
     27 H4         -0.1626    1.4438    0.6329 H         1 <0>         0.0992
     28 H5          3.2144   -2.2672   -1.1373 H         1 <0>         0.1561
     29 H6          2.9424   -2.2047    1.5186 H         1 <0>         0.1537
     30 H7          0.9868    2.0650    1.9276 H         1 <0>         0.1434
     31 H8          0.3348    2.7676    4.1888 H         1 <0>         0.1427
     32 H9          1.6569   -1.9255    3.3535 H         1 <0>         0.1448
     33 H10         1.2876   -3.1066    5.3073 H         1 <0>         0.1071
     34 H11         3.0741   -3.6142    6.7275 H         1 <0>         0.0831
     35 H12         3.1519   -1.8341    6.9147 H         1 <0>         0.0676
     36 H13         2.8475   -3.3665    9.1121 H         1 <0>         0.0569
     37 H14         1.8539   -1.8812    8.9464 H         1 <0>         0.1192
     38 H15         1.0680   -4.7793    8.3147 H         1 <0>         0.0561
     39 H16         0.1641   -3.5693    9.2784 H         1 <0>         0.0731
     40 H17        -0.6407   -2.4763    7.3804 H         1 <0>         0.0936
     41 H18        -0.3430   -4.0545    6.5982 H         1 <0>         0.0696
@<TRIPOS>BOND
     1    1    2 1
     2    1   25 1
     3    1   26 1
     4    1   27 1
     5    2    6 1
     6    2    3 1
     7    3    4 2
     8    3   23 1
     9    4    5 1
    10    4   28 1
    11    5    6 2
    12    5   29 1
    13    6    7 1
    14    7   12 ar
    15    7    8 ar
    16    8    9 ar
    17    8   30 1
    18    9   10 ar
    19    9   31 1
    20   10   16 1
    21   10   11 ar
    22   11   12 ar
    23   11   13 1
    24   12   32 1
    25   13   14 1
    26   13   18 1
    27   14   15 2
    28   14   16 1
    29   16   17 1
    30   18   22 1
    31   18   19 1
    32   18   33 1
    33   19   20 1
    34   19   34 1
    35   19   35 1
    36   20   21 1
    37   20   36 1
    38   20   37 1
    39   21   22 1
    40   21   38 1
    41   21   39 1
    42   22   40 1
    43   22   41 1
    44   23   24 3
@<TRIPOS>MOLECULE
CHEMBL187488
   40    43     0     0     0
SMALL
USER_CHARGES

@<TRIPOS>ATOM
      1 C1         -0.0168    1.3907    0.0097 C.ar      1 <0>        -0.0932
      2 C2          1.1657    2.0997    0.0022 C.ar      1 <0>        -0.0998
      3 C3          2.3787    1.4261   -0.0134 C.ar      1 <0>         0.0992
      4 C4          2.4034    0.0286   -0.0211 C.ar      1 <0>         0.0961
      5 C5          1.2171   -0.6843   -0.0139 C.ar      1 <0>        -0.0900
      6 C6          0.0021   -0.0041    0.0020 C.ar      1 <0>        -0.0437
      7 C7         -1.2729   -0.7632    0.0101 C.ar      1 <0>        -0.0045
      8 C8         -2.4873   -0.0845    0.0195 C.ar      1 <0>        -0.0743
      9 C9         -3.6819   -0.8032    0.0271 C.ar      1 <0>         0.0129
     10 C10        -3.6529   -2.1998    0.0252 C.ar      1 <0>        -0.1092
     11 C11        -2.4425   -2.8674    0.0162 C.ar      1 <0>         0.1116
     12 C12        -1.2551   -2.1570    0.0024 C.ar      1 <0>        -0.1210
     13 F1         -2.4188   -4.2182    0.0148 F         1 <0>        -0.1285
     14 C13        -4.9356   -0.1114    0.0373 C.1       1 <0>         0.2482
     15 N1         -5.9302    0.4375    0.0454 N.1       1 <0>        -0.3957
     16 N2          3.7443   -0.3499   -0.0360 N.am      1 <0>        -0.5322
     17 C14         4.4992    0.7647   -0.0372 C.2       1 <0>         0.6820
     18 N3          3.7046    1.8513   -0.0238 N.am      1 <0>        -0.6442
     19 O1          5.7158    0.7867   -0.0480 O.2       1 <0>        -0.5423
     20 C15         4.2467   -1.7260   -0.0477 C.3       1 <0>         0.1573
     21 C16         5.1779   -1.9589    1.1600 C.3       1 <0>        -0.1362
     22 C17         6.2910   -2.8840    0.6086 C.3       1 <0>        -0.1199
     23 C18         6.5110   -2.3378   -0.8240 C.3       1 <0>        -0.1212
     24 C19         5.0944   -1.9669   -1.3091 C.3       1 <0>        -0.1322
     25 H1         -0.9601    1.9165    0.0260 H         1 <0>         0.1399
     26 H2          1.1479    3.1796    0.0081 H         1 <0>         0.1377
     27 H3          1.2337   -1.7642   -0.0201 H         1 <0>         0.1349
     28 H4         -2.5045    0.9953    0.0213 H         1 <0>         0.1460
     29 H5         -4.5772   -2.7585    0.0310 H         1 <0>         0.1486
     30 H6         -0.3123   -2.6837   -0.0098 H         1 <0>         0.1466
     31 H7          3.4133   -2.4278   -0.0182 H         1 <0>         0.1029
     32 H8          5.6015   -1.0148    1.5027 H         1 <0>         0.0822
     33 H9          4.6380   -2.4517    1.9686 H         1 <0>         0.0731
     34 H10         7.2006   -2.7899    1.2018 H         1 <0>         0.0723
     35 H11         5.9531   -3.9199    0.5793 H         1 <0>         0.0702
     36 H12         7.1499   -1.4549   -0.8017 H         1 <0>         0.0749
     37 H13         6.9440   -3.1071   -1.4633 H         1 <0>         0.0681
     38 H14         4.6727   -2.7862   -1.8914 H         1 <0>         0.0760
     39 H15         5.1319   -1.0600   -1.9126 H         1 <0>         0.0716
     40 H16         4.0047    2.7737   -0.0223 H         1 <0>         0.4359
@<TRIPOS>BOND
     1    1    6 ar
     2    1    2 ar
     3    1   25 1
     4    2    3 ar
     5    2   26 1
     6    3   18 1
     7    3    4 ar
     8    4    5 ar
     9    4   16 1
    10    5    6 ar
    11    5   27 1
    12    6    7 1
    13    7   12 ar
    14    7    8 ar
    15    8    9 ar
    16    8   28 1
    17    9   10 ar
    18    9   14 1
    19   10   11 ar
    20   10   29 1
    21   11   12 ar
    22   11   13 1
    23   12   30 1
    24   14   15 3
    25   16   17 am
    26   16   20 1
    27   17   18 am
    28   17   19 2
    29   18   40 1
    30   20   24 1
    31   20   21 1
    32   20   31 1
    33   21   22 1
    34   21   32 1
    35   21   33 1
    36   22   23 1
    37   22   34 1
    38   22   35 1
    39   23   24 1
    40   23   36 1
    41   23   37 1
    42   24   38 1
    43   24   39 1
@<TRIPOS>MOLECULE
CHEMBL187488__1
   40    43     0     0     0
SMALL
USER_CHARGES

@<TRIPOS>ATOM
      1 C1         -0.0169    1.3933    0.0097 C.ar      1 <0>        -0.1092
      2 C2          1.1490    2.1022    0.0024 C.ar      1 <0>        -0.0581
      3 C3          2.3758    1.4321   -0.0130 C.ar      1 <0>         0.0685
      4 C4          2.4009    0.0263   -0.0208 C.ar      1 <0>         0.0549
      5 C5          1.2144   -0.6868   -0.0129 C.ar      1 <0>        -0.0875
      6 C6          0.0021   -0.0041    0.0020 C.ar      1 <0>        -0.0372
      7 C7         -1.2735   -0.7614    0.0106 C.ar      1 <0>        -0.0040
      8 C8         -2.4872   -0.0812    0.0206 C.ar      1 <0>        -0.0732
      9 C9         -3.6826   -0.7985    0.0288 C.ar      1 <0>         0.0129
     10 C10        -3.6554   -2.1951    0.0268 C.ar      1 <0>        -0.1096
     11 C11        -2.4457   -2.8643    0.0174 C.ar      1 <0>         0.1107
     12 C12        -1.2575   -2.1554    0.0030 C.ar      1 <0>        -0.1220
     13 F1         -2.4238   -4.2151    0.0164 F         1 <0>        -0.1291
     14 C13        -4.9356   -0.1051    0.0395 C.1       1 <0>         0.2486
     15 N1         -5.9295    0.4449    0.0481 N.1       1 <0>        -0.3957
     16 N2          3.7380   -0.3341   -0.0355 N.pl3     1 <0>        -0.4839
     17 C14         4.4673    0.8184   -0.0363 C.2       1 <0>         0.4621
     18 N3          3.6674    1.8530   -0.0230 N.2       1 <0>        -0.4887
     19 O1          5.8185    0.8820   -0.0484 O.3       1 <0>        -0.4382
     20 C15         4.2700   -1.6990   -0.0479 C.3       1 <0>         0.1330
     21 C16         5.2057   -1.9126    1.1599 C.3       1 <0>        -0.1353
     22 C17         6.3386   -2.8132    0.6081 C.3       1 <0>        -0.1211
     23 C18         6.5471   -2.2615   -0.8240 C.3       1 <0>        -0.1236
     24 C19         5.1229   -1.9209   -1.3093 C.3       1 <0>        -0.1349
     25 H1         -0.9617    1.9162    0.0261 H         1 <0>         0.1373
     26 H2          1.1240    3.1819    0.0081 H         1 <0>         0.1375
     27 H3          1.2296   -1.7667   -0.0188 H         1 <0>         0.1282
     28 H4         -2.5032    0.9987    0.0224 H         1 <0>         0.1469
     29 H5         -4.5803   -2.7527    0.0331 H         1 <0>         0.1486
     30 H6         -0.3154   -2.6833   -0.0096 H         1 <0>         0.1451
     31 H7          6.2031    0.9050   -0.9353 H         1 <0>         0.4072
     32 H8          3.4518   -2.4186   -0.0191 H         1 <0>         0.1040
     33 H9          5.6088   -0.9598    1.5033 H         1 <0>         0.0850
     34 H10         4.6763   -2.4174    1.9680 H         1 <0>         0.0761
     35 H11         7.2458   -2.6999    1.2016 H         1 <0>         0.0762
     36 H12         6.0230   -3.8561    0.5782 H         1 <0>         0.0725
     37 H13         7.1668   -1.3651   -0.8010 H         1 <0>         0.0717
     38 H14         6.9967   -3.0209   -1.4637 H         1 <0>         0.0737
     39 H15         4.7191   -2.7487   -1.8922 H         1 <0>         0.0825
     40 H16         5.1410   -1.0130   -1.9122 H         1 <0>         0.0682
@<TRIPOS>BOND
     1    1    6 ar
     2    1    2 ar
     3    1   25 1
     4    2    3 ar
     5    2   26 1
     6    3   18 1
     7    3    4 ar
     8    4    5 ar
     9    4   16 1
    10    5    6 ar
    11    5   27 1
    12    6    7 1
    13    7   12 ar
    14    7    8 ar
    15    8    9 ar
    16    8   28 1
    17    9   10 ar
    18    9   14 1
    19   10   11 ar
    20   10   29 1
    21   11   12 ar
    22   11   13 1
    23   12   30 1
    24   14   15 3
    25   16   17 1
    26   16   20 1
    27   17   18 2
    28   17   19 1
    29   19   31 1
    30   20   24 1
    31   20   21 1
    32   20   32 1
    33   21   22 1
    34   21   33 1
    35   21   34 1
    36   22   23 1
    37   22   35 1
    38   22   36 1
    39   23   24 1
    40   23   37 1
    41   23   38 1
    42   24   39 1
    43   24   40 1
@<TRIPOS>MOLECULE
CHEMBL25415
   41    44     0     0     0
SMALL
USER_CHARGES

@<TRIPOS>ATOM
      1 C1         -0.0187    1.5258    0.0104 C.3       1 <0>        -0.1382
      2 C2          0.0021   -0.0041    0.0020 C.3       1 <0>         0.2010
      3 C3         -1.4121   -0.5279    0.0232 C.ar      1 <0>        -0.1378
      4 C4         -2.4292    0.1696   -0.5881 C.ar      1 <0>        -0.0624
      5 C5         -3.7278   -0.3390   -0.5674 C.ar      1 <0>        -0.0498
      6 C6         -3.9907   -1.5507    0.0703 C.ar      1 <0>        -0.0696
      7 C7         -2.9686   -2.2430    0.6853 C.ar      1 <0>        -0.1237
      8 C8         -1.6784   -1.7312    0.6688 C.ar      1 <0>         0.1357
      9 N1         -0.6345   -2.4009    1.3147 N.pl3     1 <0>        -0.6041
     10 C9          0.5504   -1.7798    1.4802 C.2       1 <0>         0.5010
     11 O1          0.6934   -0.4794    1.1600 O.3       1 <0>        -0.2742
     12 S1          1.8854   -2.6518    2.1036 S.2       1 <0>        -0.4832
     13 C10        -4.8283    0.4085   -1.2237 C.ar      1 <0>        -0.0341
     14 C11        -4.5665    1.6170   -1.8671 C.ar      1 <0>        -0.1063
     15 C12        -5.5936    2.3087   -2.4761 C.ar      1 <0>        -0.1001
     16 C13        -6.8817    1.8052   -2.4493 C.ar      1 <0>        -0.1059
     17 C14        -7.1481    0.6056   -1.8121 C.ar      1 <0>        -0.0302
     18 C15        -6.1262   -0.0977   -1.2041 C.ar      1 <0>        -0.1015
     19 Cl1        -8.7675   -0.0192   -1.7824 Cl        1 <0>        -0.0626
     20 C16         0.7035   -0.4918   -1.2394 C.ar      1 <0>        -0.1301
     21 C17        -0.0179   -0.7210   -2.3960 C.ar      1 <0>        -0.0998
     22 C18         0.6255   -1.1684   -3.5348 C.ar      1 <0>        -0.1206
     23 C19         1.9905   -1.3862   -3.5170 C.ar      1 <0>        -0.1061
     24 C20         2.7121   -1.1561   -2.3606 C.ar      1 <0>        -0.1148
     25 C21         2.0693   -0.7046   -1.2231 C.ar      1 <0>        -0.0904
     26 H1          1.0039    1.9031    0.0027 H         1 <0>         0.0840
     27 H2         -0.5459    1.8868   -0.8726 H         1 <0>         0.0894
     28 H3         -0.5289    1.8773    0.9072 H         1 <0>         0.0788
     29 H4         -2.2225    1.1076   -1.0819 H         1 <0>         0.1441
     30 H5         -4.9952   -1.9471    0.0829 H         1 <0>         0.1417
     31 H6         -3.1717   -3.1820    1.1787 H         1 <0>         0.1432
     32 H7         -3.5614    2.0116   -1.8885 H         1 <0>         0.1319
     33 H8         -5.3914    3.2453   -2.9744 H         1 <0>         0.1378
     34 H9         -7.6825    2.3501   -2.9270 H         1 <0>         0.1369
     35 H10        -6.3336   -1.0360   -0.7112 H         1 <0>         0.1374
     36 H11        -1.0844   -0.5509   -2.4099 H         1 <0>         0.1245
     37 H12         0.0617   -1.3482   -4.4382 H         1 <0>         0.1264
     38 H13         2.4931   -1.7364   -4.4065 H         1 <0>         0.1264
     39 H14         3.7785   -1.3265   -2.3466 H         1 <0>         0.1289
     40 H15         2.6337   -0.5212   -0.3207 H         1 <0>         0.1335
     41 H16        -0.7620   -3.3053    1.6413 H         1 <0>         0.4428
@<TRIPOS>BOND
     1    1    2 1
     2    1   26 1
     3    1   27 1
     4    1   28 1
     5    2   11 1
     6    2    3 1
     7    2   20 1
     8    3    8 ar
     9    3    4 ar
    10    4    5 ar
    11    4   29 1
    12    5    6 ar
    13    5   13 1
    14    6    7 ar
    15    6   30 1
    16    7    8 ar
    17    7   31 1
    18    8    9 1
    19    9   10 1
    20    9   41 1
    21   10   11 1
    22   10   12 2
    23   13   18 ar
    24   13   14 ar
    25   14   15 ar
    26   14   32 1
    27   15   16 ar
    28   15   33 1
    29   16   17 ar
    30   16   34 1
    31   17   18 ar
    32   17   19 1
    33   18   35 1
    34   20   25 ar
    35   20   21 ar
    36   21   22 ar
    37   21   36 1
    38   22   23 ar
    39   22   37 1
    40   23   24 ar
    41   23   38 1
    42   24   25 ar
    43   24   39 1
    44   25   40 1
@<TRIPOS>MOLECULE
CHEMBL25415__1
   41    44     0     0     0
SMALL
USER_CHARGES

@<TRIPOS>ATOM
      1 C1         -0.0042    1.4908    0.3281 C.3       1 <0>        -0.1699
      2 C2          0.0021   -0.0041    0.0020 C.3       1 <0>         0.2011
      3 C3          0.6159   -0.2210   -1.3584 C.ar      1 <0>        -0.1399
      4 C4         -0.1597   -0.1766   -2.4947 C.ar      1 <0>        -0.0568
      5 C5          0.4303   -0.3676   -3.7440 C.ar      1 <0>        -0.0502
      6 C6          1.8016   -0.6012   -3.8378 C.ar      1 <0>        -0.0700
      7 C7          2.5732   -0.6494   -2.6956 C.ar      1 <0>        -0.1242
      8 C8          1.9823   -0.4656   -1.4532 C.ar      1 <0>         0.1323
      9 N1          2.7410   -0.5434   -0.2811 N.pl3     1 <0>        -0.6049
     10 C9          2.1159   -0.5889    0.9123 C.2       1 <0>         0.4989
     11 O1          0.7757   -0.7037    0.9802 O.3       1 <0>        -0.2740
     12 S1          3.0340   -0.5005    2.3546 S.2       1 <0>        -0.4821
     13 C10        -0.4007   -0.3227   -4.9721 C.ar      1 <0>        -0.0341
     14 C11        -1.7710   -0.0841   -4.8809 C.ar      1 <0>        -0.1050
     15 C12        -2.5398   -0.0433   -6.0262 C.ar      1 <0>        -0.1002
     16 C13        -1.9534   -0.2387   -7.2637 C.ar      1 <0>        -0.1059
     17 C14        -0.5932   -0.4761   -7.3607 C.ar      1 <0>        -0.0304
     18 C15         0.1867   -0.5133   -6.2210 C.ar      1 <0>        -0.1016
     19 Cl1         0.1350   -0.7209   -8.9175 Cl        1 <0>        -0.0629
     20 C16        -1.4111   -0.5274    0.0085 C.ar      1 <0>        -0.0841
     21 C17        -2.4385    0.2506   -0.4916 C.ar      1 <0>        -0.1103
     22 C18        -3.7349   -0.2294   -0.4856 C.ar      1 <0>        -0.1161
     23 C19        -4.0037   -1.4875    0.0201 C.ar      1 <0>        -0.1076
     24 C20        -2.9762   -2.2658    0.5193 C.ar      1 <0>        -0.1138
     25 C21        -1.6793   -1.7875    0.5094 C.ar      1 <0>        -0.0900
     26 H1          1.0181    1.8687    0.3202 H         1 <0>         0.0665
     27 H2         -0.5942    2.0229   -0.4181 H         1 <0>         0.0889
     28 H3         -0.4412    1.6456    1.3146 H         1 <0>         0.0873
     29 H4         -1.2216    0.0052   -2.4191 H         1 <0>         0.1447
     30 H5          2.2598   -0.7449   -4.8052 H         1 <0>         0.1418
     31 H6          3.6357   -0.8296   -2.7679 H         1 <0>         0.1436
     32 H7         -2.2304    0.0683   -3.9155 H         1 <0>         0.1316
     33 H8         -3.6016    0.1412   -5.9561 H         1 <0>         0.1376
     34 H9         -2.5591   -0.2063   -8.1572 H         1 <0>         0.1369
     35 H10         1.2487   -0.6938   -6.2976 H         1 <0>         0.1374
     36 H11        -2.2285    1.2336   -0.8867 H         1 <0>         0.1288
     37 H12        -4.5377    0.3787   -0.8757 H         1 <0>         0.1300
     38 H13        -5.0166   -1.8622    0.0254 H         1 <0>         0.1274
     39 H14        -3.1863   -3.2487    0.9147 H         1 <0>         0.1283
     40 H15        -0.8759   -2.3971    0.8961 H         1 <0>         0.1275
     41 H16         3.7097   -0.5649   -0.3265 H         1 <0>         0.4434
@<TRIPOS>BOND
     1    1    2 1
     2    1   26 1
     3    1   27 1
     4    1   28 1
     5    2   11 1
     6    2    3 1
     7    2   20 1
     8    3    8 ar
     9    3    4 ar
    10    4    5 ar
    11    4   29 1
    12    5    6 ar
    13    5   13 1
    14    6    7 ar
    15    6   30 1
    16    7    8 ar
    17    7   31 1
    18    8    9 1
    19    9   10 1
    20    9   41 1
    21   10   11 1
    22   10   12 2
    23   13   18 ar
    24   13   14 ar
    25   14   15 ar
    26   14   32 1
    27   15   16 ar
    28   15   33 1
    29   16   17 ar
    30   16   34 1
    31   17   18 ar
    32   17   19 1
    33   18   35 1
    34   20   25 ar
    35   20   21 ar
    36   21   22 ar
    37   21   36 1
    38   22   23 ar
    39   22   37 1
    40   23   24 ar
    41   23   38 1
    42   24   25 ar
    43   24   39 1
    44   25   40 1
@<TRIPOS>MOLECULE
CHEMBL404496
   47    50     0     0     0
SMALL
USER_CHARGES

@<TRIPOS>ATOM
      1 C1         -0.3199    1.3098   -0.2802 C.3       1 <0>        -0.1066
      2 C2         -0.2768   -0.1935   -0.1823 C.ar      1 <0>        -0.1538
      3 C3         -0.3756   -0.9592   -1.3244 C.ar      1 <0>        -0.0569
      4 C4         -0.3353   -2.3494   -1.2316 C.ar      1 <0>        -0.0516
      5 C5         -0.1973   -2.9584    0.0148 C.ar      1 <0>         0.0184
      6 C6         -0.0994   -2.1868    1.1592 C.ar      1 <0>        -0.1373
      7 C7         -0.1319   -0.8034    1.0598 C.ar      1 <0>         0.2330
      8 N1         -0.0205   -0.0002    2.2014 N.pl3     1 <0>        -0.7372
      9 C8         -0.1664   -0.6218    3.5246 C.3       1 <0>         0.1718
     10 C9          0.6486   -1.9217    3.5242 C.3       1 <0>        -0.1190
     11 C10         0.0434   -2.8770    2.4904 C.3       1 <0>        -0.0404
     12 C11         0.9673   -4.0867    2.3354 C.3       1 <0>        -0.1580
     13 C12        -1.6403   -0.9343    3.7905 C.3       1 <0>        -0.1620
     14 C13         0.3667    0.3237    4.6029 C.3       1 <0>        -0.1535
     15 Cl1        -0.1487   -4.6898    0.1315 Cl        1 <0>        -0.0563
     16 C14        -0.4395   -3.1789   -2.4562 C.2       1 <0>        -0.1275
     17 C15         0.4525   -3.2332   -3.4744 C.2       1 <0>         0.0681
     18 N2          0.0140   -4.1106   -4.4262 N.pl3     1 <0>        -0.5937
     19 H1          0.4839   -4.3181   -5.2491 H         1 <0>         0.4166
     20 C16        -1.1922   -4.6581   -4.0467 C.ar      1 <0>         0.0948
     21 C17        -1.5288   -4.1074   -2.7981 C.ar      1 <0>        -0.0827
     22 C18        -2.7100   -4.4884   -2.1632 C.ar      1 <0>        -0.0636
     23 C19        -3.5409   -5.4077   -2.7639 C.ar      1 <0>        -0.1473
     24 C20        -3.2075   -5.9548   -3.9950 C.ar      1 <0>        -0.0988
     25 C21        -2.0476   -5.5821   -4.6382 C.ar      1 <0>        -0.1325
     26 H2          0.6915    1.6943   -0.4122 H         1 <0>         0.0664
     27 H3         -0.9334    1.6009   -1.1327 H         1 <0>         0.0686
     28 H4         -0.7487    1.7212    0.6335 H         1 <0>         0.0612
     29 H5         -0.4841   -0.4834   -2.2878 H         1 <0>         0.1287
     30 H6          0.1505    0.9511    2.1200 H         1 <0>         0.4016
     31 H7          1.6849   -1.7030    3.2668 H         1 <0>         0.0717
     32 H8          0.6048   -2.3805    4.5120 H         1 <0>         0.0775
     33 H9         -0.9366   -3.2144    2.8276 H         1 <0>         0.0826
     34 H10         1.7116   -3.8793    1.5665 H         1 <0>         0.0582
     35 H11         1.4688   -4.2846    3.2826 H         1 <0>         0.0492
     36 H12         0.3796   -4.9580    2.0464 H         1 <0>         0.0740
     37 H13        -2.0098   -1.6196    3.0277 H         1 <0>         0.0628
     38 H14        -1.7424   -1.3951    4.7731 H         1 <0>         0.0653
     39 H15        -2.2187   -0.0110    3.7604 H         1 <0>         0.0579
     40 H16        -0.1966    1.2566    4.5788 H         1 <0>         0.0617
     41 H17         0.2559   -0.1425    5.5819 H         1 <0>         0.0736
     42 H18         1.4204    0.5306    4.4161 H         1 <0>         0.0627
     43 H19         1.3714   -2.6680   -3.5264 H         1 <0>         0.1707
     44 H20        -2.9719   -4.0650   -1.2048 H         1 <0>         0.1179
     45 H21        -4.4566   -5.7046   -2.2743 H         1 <0>         0.1214
     46 H22        -3.8669   -6.6751   -4.4562 H         1 <0>         0.1240
     47 H23        -1.7971   -6.0153   -5.5953 H         1 <0>         0.1183
@<TRIPOS>BOND
     1    1    2 1
     2    1   26 1
     3    1   27 1
     4    1   28 1
     5    2    7 ar
     6    2    3 ar
     7    3    4 ar
     8    3   29 1
     9    4    5 ar
    10    4   16 1
    11    5    6 ar
    12    5   15 1
    13    6   11 1
    14    6    7 ar
    15    7    8 1
    16    8    9 1
    17    8   30 1
    18    9   10 1
    19    9   13 1
    20    9   14 1
    21   10   11 1
    22   10   31 1
    23   10   32 1
    24   11   12 1
    25   11   33 1
    26   12   34 1
    27   12   35 1
    28   12   36 1
    29   13   37 1
    30   13   38 1
    31   13   39 1
    32   14   40 1
    33   14   41 1
    34   14   42 1
    35   16   21 1
    36   16   17 2
    37   17   18 1
    38   17   43 1
    39   18   19 1
    40   18   20 1
    41   20   25 ar
    42   20   21 ar
    43   21   22 ar
    44   22   23 ar
    45   22   44 1
    46   23   24 ar
    47   23   45 1
    48   24   25 ar
    49   24   46 1
    50   25   47 1
@<TRIPOS>MOLECULE
CHEMBL404496__1
   47    50     0     0     0
SMALL
USER_CHARGES

@<TRIPOS>ATOM
      1 C1         -0.1480    1.5788    0.1579 C.3       1 <0>        -0.1033
      2 C2         -0.1211    0.0732    0.1005 C.ar      1 <0>        -0.1538
      3 C3         -0.1675   -0.5685   -1.1187 C.ar      1 <0>        -0.0570
      4 C4         -0.1419   -1.9613   -1.1696 C.ar      1 <0>        -0.0514
      5 C5         -0.0677   -2.6980    0.0116 C.ar      1 <0>         0.0184
      6 C6         -0.0203   -2.0507    1.2337 C.ar      1 <0>        -0.1370
      7 C7         -0.0438   -0.6642    1.2779 C.ar      1 <0>         0.2330
      8 N1         -0.0007    0.0143    2.5021 N.pl3     1 <0>        -0.7379
      9 C8          0.3769   -0.7273    3.7127 C.3       1 <0>         0.1730
     10 C9         -0.3798   -2.0619    3.7000 C.3       1 <0>        -0.1200
     11 C10         0.0648   -2.8767    2.4903 C.3       1 <0>        -0.0403
     12 C11        -0.8264   -4.1116    2.3441 C.3       1 <0>        -0.1570
     13 C12        -0.0113    0.0767    4.9551 C.3       1 <0>        -0.1534
     14 C13         1.8848   -0.9866    3.7123 C.3       1 <0>        -0.1615
     15 Cl1        -0.0352   -4.4326   -0.0508 Cl        1 <0>        -0.0563
     16 C14        -0.1939   -2.6579   -2.4775 C.2       1 <0>        -0.1276
     17 C15         0.7450   -2.6171   -3.4532 C.2       1 <0>         0.0681
     18 N2          0.3458   -3.3856   -4.5106 N.pl3     1 <0>        -0.5937
     19 H1          0.8526   -3.5123   -5.3280 H         1 <0>         0.4166
     20 C16        -0.8811   -3.9548   -4.2467 C.ar      1 <0>         0.0947
     21 C17        -1.2725   -3.5325   -2.9645 C.ar      1 <0>        -0.0825
     22 C18        -2.4853   -3.9629   -2.4283 C.ar      1 <0>        -0.0634
     23 C19        -3.2935   -4.8046   -3.1595 C.ar      1 <0>        -0.1473
     24 C20        -2.9060   -5.2250   -4.4241 C.ar      1 <0>        -0.0988
     25 C21        -1.7142   -4.8019   -4.9704 C.ar      1 <0>        -0.1325
     26 H2          0.8715    1.9622    0.1172 H         1 <0>         0.0678
     27 H3         -0.7154    1.9647   -0.6890 H         1 <0>         0.0681
     28 H4         -0.6195    1.8986    1.0872 H         1 <0>         0.0581
     29 H5         -0.2239    0.0060   -2.0314 H         1 <0>         0.1288
     30 H6         -0.2164    0.9588    2.5499 H         1 <0>         0.4010
     31 H7         -0.1623   -2.6138    4.6145 H         1 <0>         0.0780
     32 H8         -1.4512   -1.8736    3.6310 H         1 <0>         0.0706
     33 H9          1.0963   -3.1942    2.6428 H         1 <0>         0.0802
     34 H10        -0.2571   -4.9179    1.8815 H         1 <0>         0.0744
     35 H11        -1.1719   -4.4289    3.3280 H         1 <0>         0.0493
     36 H12        -1.6852   -3.8680    1.7185 H         1 <0>         0.0588
     37 H13        -1.0881    0.2453    4.9570 H         1 <0>         0.0628
     38 H14         0.2712   -0.4781    5.8498 H         1 <0>         0.0736
     39 H15         0.5066    1.0358    4.9437 H         1 <0>         0.0619
     40 H16         2.4170   -0.0356    3.6915 H         1 <0>         0.0579
     41 H17         2.1591   -1.5369    4.6123 H         1 <0>         0.0652
     42 H18         2.1526   -1.5721    2.8327 H         1 <0>         0.0623
     43 H19         1.6695   -2.0609   -3.4033 H         1 <0>         0.1707
     44 H20        -2.7893   -3.6381   -1.4442 H         1 <0>         0.1179
     45 H21        -4.2335   -5.1396   -2.7466 H         1 <0>         0.1214
     46 H22        -3.5481   -5.8855   -4.9880 H         1 <0>         0.1239
     47 H23        -1.4217   -5.1364   -5.9547 H         1 <0>         0.1183
@<TRIPOS>BOND
     1    1    2 1
     2    1   26 1
     3    1   27 1
     4    1   28 1
     5    2    7 ar
     6    2    3 ar
     7    3    4 ar
     8    3   29 1
     9    4    5 ar
    10    4   16 1
    11    5    6 ar
    12    5   15 1
    13    6   11 1
    14    6    7 ar
    15    7    8 1
    16    8    9 1
    17    8   30 1
    18    9   10 1
    19    9   13 1
    20    9   14 1
    21   10   11 1
    22   10   31 1
    23   10   32 1
    24   11   12 1
    25   11   33 1
    26   12   34 1
    27   12   35 1
    28   12   36 1
    29   13   37 1
    30   13   38 1
    31   13   39 1
    32   14   40 1
    33   14   41 1
    34   14   42 1
    35   16   21 1
    36   16   17 2
    37   17   18 1
    38   17   43 1
    39   18   19 1
    40   18   20 1
    41   20   25 ar
    42   20   21 ar
    43   21   22 ar
    44   22   23 ar
    45   22   44 1
    46   23   24 ar
    47   23   45 1
    48   24   25 ar
    49   24   46 1
    50   25   47 1
@<TRIPOS>MOLECULE
CHEMBL486433
   42    44     0     0     0
SMALL
USER_CHARGES

@<TRIPOS>ATOM
      1 C1         -0.0560    1.4889   -0.3274 C.3       1 <0>        -0.1812
      2 C2          0.0021   -0.0041    0.0020 C.3       1 <0>         0.0936
      3 C3          0.5720   -0.7222   -1.1796 C.ar      1 <0>        -0.1412
      4 C4         -0.3571   -1.2310   -2.0831 C.ar      1 <0>        -0.0692
      5 C5          0.0442   -1.9247   -3.2157 C.ar      1 <0>        -0.0355
      6 C6          1.4054   -2.1162   -3.4501 C.ar      1 <0>        -0.0528
      7 C7          2.3205   -1.6124   -2.5620 C.ar      1 <0>        -0.1391
      8 C8          1.9196   -0.9028   -1.4160 C.ar      1 <0>         0.1676
      9 N1          2.9499   -0.4349   -0.6305 N.am      1 <0>        -0.6497
     10 C9          3.0282    0.1586    0.5306 C.2       1 <0>         0.5119
     11 O1          4.1398    0.3056    0.9928 O.2       1 <0>        -0.4813
     12 C10         1.8945    0.6718    1.3439 C.3       1 <0>        -0.0388
     13 N2          0.7200   -0.1644    1.2329 N.4       1 <0>        -0.3576
     14 C11         1.1332   -1.5689    1.3539 C.3       1 <0>        -0.0740
     15 C12        -0.9631   -2.4568   -4.1659 C.ar      1 <0>        -0.0599
     16 C13        -2.3220   -2.2573   -3.9283 C.ar      1 <0>        -0.0748
     17 C14        -3.2558   -2.7538   -4.8143 C.ar      1 <0>        -0.1360
     18 C15        -2.8451   -3.4504   -5.9391 C.ar      1 <0>         0.1257
     19 C16        -1.4948   -3.6520   -6.1797 C.ar      1 <0>        -0.0717
     20 C17        -0.5532   -3.1526   -5.3015 C.ar      1 <0>        -0.0684
     21 Cl1        -0.9866   -4.5263   -7.5908 Cl        1 <0>        -0.0305
     22 F1         -3.7631   -3.9352   -6.8037 F         1 <0>        -0.1165
     23 C18        -1.4294   -0.5007    0.2145 C.3       1 <0>        -0.1811
     24 H1          0.9455    1.8480   -0.5642 H         1 <0>         0.0805
     25 H2         -0.7107    1.6467   -1.1845 H         1 <0>         0.1117
     26 H3         -0.4443    2.0357    0.5319 H         1 <0>         0.0901
     27 H4         -1.4109   -1.0824   -1.8989 H         1 <0>         0.1491
     28 H5          1.7362   -2.6567   -4.3246 H         1 <0>         0.1480
     29 H6          3.3737   -1.7640   -2.7470 H         1 <0>         0.1460
     30 H7          3.8203   -0.5803   -1.0333 H         1 <0>         0.4209
     31 H8          2.2002    0.7156    2.3892 H         1 <0>         0.1769
     32 H9          1.6449    1.6782    1.0075 H         1 <0>         0.1694
     33 H10         1.7744   -1.8327    0.5128 H         1 <0>         0.1245
     34 H11         1.6811   -1.7074    2.2859 H         1 <0>         0.1324
     35 H12         0.2507   -2.2086    1.3526 H         1 <0>         0.1360
     36 H13        -2.6435   -1.7150   -3.0514 H         1 <0>         0.1399
     37 H14        -4.3088   -2.5994   -4.6304 H         1 <0>         0.1535
     38 H15         0.4988   -3.3056   -5.4917 H         1 <0>         0.1483
     39 H16        -2.0464   -0.2047   -0.6339 H         1 <0>         0.1129
     40 H17        -1.4279   -1.5873    0.3011 H         1 <0>         0.0915
     41 H18        -1.8337   -0.0640    1.1277 H         1 <0>         0.0901
     42 H19         0.0984    0.0515    1.9978 H         1 <0>         0.4387
@<TRIPOS>BOND
     1    1    2 1
     2    1   24 1
     3    1   25 1
     4    1   26 1
     5    2   13 1
     6    2    3 1
     7    2   23 1
     8    3    8 ar
     9    3    4 ar
    10    4    5 ar
    11    4   27 1
    12    5    6 ar
    13    5   15 1
    14    6    7 ar
    15    6   28 1
    16    7    8 ar
    17    7   29 1
    18    8    9 1
    19    9   10 am
    20    9   30 1
    21   10   11 2
    22   10   12 1
    23   12   13 1
    24   12   31 1
    25   12   32 1
    26   13   14 1
    27   13   42 1
    28   14   33 1
    29   14   34 1
    30   14   35 1
    31   15   20 ar
    32   15   16 ar
    33   16   17 ar
    34   16   36 1
    35   17   18 ar
    36   17   37 1
    37   18   19 ar
    38   18   22 1
    39   19   20 ar
    40   19   21 1
    41   20   38 1
    42   23   39 1
    43   23   40 1
    44   23   41 1
@<TRIPOS>MOLECULE
CHEMBL486433__1
   41    43     0     0     0
SMALL
USER_CHARGES

@<TRIPOS>ATOM
      1 C1         -0.0556    1.4888   -0.3281 C.3       1 <0>        -0.1504
      2 C2          0.0021   -0.0041    0.0020 C.3       1 <0>         0.1548
      3 C3          0.5757   -0.7233   -1.1776 C.ar      1 <0>        -0.1342
      4 C4         -0.3506   -1.2310   -2.0844 C.ar      1 <0>        -0.0705
      5 C5          0.0540   -1.9244   -3.2160 C.ar      1 <0>        -0.0709
      6 C6          1.4160   -2.1158   -3.4460 C.ar      1 <0>        -0.0695
      7 C7          2.3283   -1.6131   -2.5545 C.ar      1 <0>        -0.1588
      8 C8          1.9241   -0.9052   -1.4083 C.ar      1 <0>         0.1839
      9 N1          2.9521   -0.4430   -0.6175 N.am      1 <0>        -0.6497
     10 C9          3.0367    0.1269    0.5540 C.2       1 <0>         0.4925
     11 O1          4.1490    0.2424    1.0235 O.2       1 <0>        -0.5352
     12 C10         1.9095    0.6497    1.3723 C.3       1 <0>         0.0404
     13 N2          0.7201   -0.1649    1.2342 N.3       1 <0>        -0.5249
     14 C11         1.0185   -1.5806    1.4887 C.3       1 <0>         0.0141
     15 C12        -0.9502   -2.4562   -4.1695 C.ar      1 <0>        -0.0340
     16 C13        -2.3098   -2.2566   -3.9361 C.ar      1 <0>        -0.0807
     17 C14        -3.2409   -2.7528   -4.8252 C.ar      1 <0>        -0.1344
     18 C15        -2.8267   -3.4491   -5.9490 C.ar      1 <0>         0.1087
     19 C16        -1.4756   -3.6506   -6.1854 C.ar      1 <0>        -0.0689
     20 C17        -0.5368   -3.1516   -5.3040 C.ar      1 <0>        -0.0782
     21 Cl1        -0.9630   -4.5245   -7.5951 Cl        1 <0>        -0.0435
     22 F1         -3.7420   -3.9335   -6.8166 F         1 <0>        -0.1240
     23 C18        -1.4293   -0.5016    0.2127 C.3       1 <0>        -0.1410
     24 H1          0.9473    1.8494   -0.5567 H         1 <0>         0.0538
     25 H2         -0.7035    1.6454   -1.1906 H         1 <0>         0.0698
     26 H3         -0.4518    2.0351    0.5279 H         1 <0>         0.0756
     27 H4         -1.4049   -1.0825   -1.9032 H         1 <0>         0.1411
     28 H5          1.7497   -2.6561   -4.3196 H         1 <0>         0.1346
     29 H6          3.3820   -1.7647   -2.7364 H         1 <0>         0.1317
     30 H7          3.8210   -0.5718   -1.0290 H         1 <0>         0.3984
     31 H8          2.2091    0.6654    2.4202 H         1 <0>         0.1236
     32 H9          1.6822    1.6672    1.0543 H         1 <0>         0.1183
     33 H10         1.6273   -1.9755    0.6753 H         1 <0>         0.0342
     34 H11         1.5629   -1.6739    2.4284 H         1 <0>         0.0735
     35 H12         0.0868   -2.1428    1.5512 H         1 <0>         0.0799
     36 H13        -2.6341   -1.7146   -3.0601 H         1 <0>         0.1422
     37 H14        -4.2945   -2.5984   -4.6447 H         1 <0>         0.1496
     38 H15         0.5158   -3.3046   -5.4910 H         1 <0>         0.1461
     39 H16        -2.0455   -0.2059   -0.6365 H         1 <0>         0.0667
     40 H17        -1.4273   -1.5882    0.2991 H         1 <0>         0.0609
     41 H18        -1.8351   -0.0653    1.1254 H         1 <0>         0.0744
@<TRIPOS>BOND
     1    1    2 1
     2    1   24 1
     3    1   25 1
     4    1   26 1
     5    2   13 1
     6    2    3 1
     7    2   23 1
     8    3    8 ar
     9    3    4 ar
    10    4    5 ar
    11    4   27 1
    12    5    6 ar
    13    5   15 1
    14    6    7 ar
    15    6   28 1
    16    7    8 ar
    17    7   29 1
    18    8    9 1
    19    9   10 am
    20    9   30 1
    21   10   11 2
    22   10   12 1
    23   12   13 1
    24   12   31 1
    25   12   32 1
    26   13   14 1
    27   14   33 1
    28   14   34 1
    29   14   35 1
    30   15   20 ar
    31   15   16 ar
    32   16   17 ar
    33   16   36 1
    34   17   18 ar
    35   17   37 1
    36   18   19 ar
    37   18   22 1
    38   19   20 ar
    39   19   21 1
    40   20   38 1
    41   23   39 1
    42   23   40 1
    43   23   41 1
@<TRIPOS>MOLECULE
CHEMBL258861
   72    77     0     0     0
SMALL
USER_CHARGES

@<TRIPOS>ATOM
      1 C1         -0.0421    1.5197   -0.0256 C.3       1 <0>        -0.1624
      2 C2         -0.0251   -0.0102   -0.0327 C.3       1 <0>        -0.0425
      3 C3         -1.4283   -0.5389    0.1927 C.3       1 <0>        -0.0937
      4 C4         -1.9543    0.1073    1.4840 C.3       1 <0>        -0.0356
      5 H1         -2.9507   -0.2810    1.6952 H         1 <0>         0.0816
      6 C5         -1.0444   -0.1842    2.6736 C.3       1 <0>        -0.0633
      7 H2         -1.0775   -1.2515    2.8923 H         1 <0>         0.0760
      8 C6          0.4092    0.2237    2.3940 C.3       1 <0>        -0.0991
      9 H3          0.4707    1.3010    2.2400 H         1 <0>         0.1075
     10 C7          0.8519   -0.5306    1.1390 C.3       1 <0>        -0.0828
     11 H4          0.7161   -1.6043    1.2689 H         1 <0>         0.0786
     12 C8          2.2653   -0.2124    0.6376 C.3       1 <0>        -0.1125
     13 C9          2.1970   -0.5977   -0.8666 C.3       1 <0>        -0.1350
     14 C10         0.7079   -0.5095   -1.2662 C.3       1 <0>         0.1452
     15 C11         0.2074   -1.8710   -1.6895 C.2       1 <0>        -0.1375
     16 C12         0.1506   -2.9632   -0.9684 C.2       1 <0>        -0.1707
     17 C13        -0.2170   -1.6901   -3.1434 C.3       1 <0>        -0.1281
     18 C14         0.5718   -0.4237   -3.5638 C.3       1 <0>         0.0447
     19 O1          0.5502    0.3901   -2.3687 O.3       1 <0>        -0.3513
     20 C15         1.2804   -0.1846    3.5854 C.3       1 <0>        -0.1142
     21 C16         0.8583    0.6212    4.8159 C.3       1 <0>        -0.1006
     22 C17        -0.6283    0.4191    5.0459 C.2       1 <0>        -0.0224
     23 C18        -1.0278    0.1067    6.2785 C.2       1 <0>        -0.2454
     24 C19        -2.4545   -0.0839    6.5613 C.2       1 <0>         0.3885
     25 O2         -2.8361   -0.7209    7.5209 O.2       1 <0>        -0.4602
     26 C20        -3.4270    0.5578    5.5909 C.3       1 <0>        -0.1680
     27 C21        -2.9928    0.1624    4.1803 C.3       1 <0>        -0.1052
     28 C22        -1.5517    0.5914    3.8958 C.3       1 <0>        -0.0985
     29 C23        -2.0403    1.5989    1.2871 C.ar      1 <0>        -0.1126
     30 C24        -1.2459    2.4414    2.0429 C.ar      1 <0>        -0.0979
     31 C25        -1.3222    3.8088    1.8651 C.ar      1 <0>        -0.2035
     32 C26        -2.1983    4.3376    0.9257 C.ar      1 <0>         0.2138
     33 C27        -2.9949    3.4884    0.1682 C.ar      1 <0>        -0.1957
     34 C28        -2.9095    2.1217    0.3471 C.ar      1 <0>        -0.0721
     35 N1         -2.2783    5.7201    0.7436 N.pl3     1 <0>        -0.6389
     36 C29        -1.4377    6.6142    1.5437 C.3       1 <0>         0.0933
     37 C30        -3.2028    6.2761   -0.2476 C.3       1 <0>         0.0931
     38 H5          0.7532    1.8949   -0.6696 H         1 <0>         0.0457
     39 H6         -1.0050    1.8741   -0.3933 H         1 <0>         0.0781
     40 H7          0.1135    1.8800    0.9913 H         1 <0>         0.0834
     41 H8         -2.0675   -0.2651   -0.6467 H         1 <0>         0.0665
     42 H9         -1.4033   -1.6230    0.3034 H         1 <0>         0.0693
     43 H10         2.4860    0.8486    0.7541 H         1 <0>         0.0707
     44 H11         3.0050   -0.8206    1.1582 H         1 <0>         0.0664
     45 H12         2.7863    0.1015   -1.4598 H         1 <0>         0.0731
     46 H13         2.5640   -1.6140   -1.0103 H         1 <0>         0.0684
     47 H14         0.4873   -2.9511    0.0576 H         1 <0>         0.1084
     48 H15        -0.2330   -3.8759   -1.4001 H         1 <0>         0.1058
     49 H16         0.0810   -2.5495   -3.7440 H         1 <0>         0.0828
     50 H17        -1.2912   -1.5194   -3.2153 H         1 <0>         0.0869
     51 H18         1.5955   -0.6806   -3.8361 H         1 <0>         0.0609
     52 H19         0.0703    0.0868   -4.3861 H         1 <0>         0.0929
     53 H20         1.1501   -1.2484    3.7843 H         1 <0>         0.0667
     54 H21         2.3269    0.0188    3.3582 H         1 <0>         0.0729
     55 H22         1.4134    0.2747    5.6876 H         1 <0>         0.0789
     56 H23         1.0616    1.6787    4.6474 H         1 <0>         0.0830
     57 H24        -0.3009   -0.0064    7.0692 H         1 <0>         0.1324
     58 H25        -4.4365    0.1944    5.7834 H         1 <0>         0.0909
     59 H26        -3.3960    1.6421    5.6979 H         1 <0>         0.0986
     60 H27        -3.0669   -0.9201    4.0760 H         1 <0>         0.0664
     61 H28        -3.6591    0.6341    3.4581 H         1 <0>         0.0833
     62 H29        -1.5659    1.6506    3.6392 H         1 <0>         0.1263
     63 H30        -0.5652    2.0296    2.7734 H         1 <0>         0.1544
     64 H31        -0.7017    4.4663    2.4560 H         1 <0>         0.1188
     65 H32        -3.6773    3.8963   -0.5628 H         1 <0>         0.1179
     66 H33        -3.5253    1.4606   -0.2446 H         1 <0>         0.1168
     67 H34        -0.4933    6.7844    1.0268 H         1 <0>         0.0473
     68 H35        -1.9510    7.5654    1.6853 H         1 <0>         0.0649
     69 H36        -1.2435    6.1582    2.5145 H         1 <0>         0.0681
     70 H37        -4.1680    6.4656    0.2220 H         1 <0>         0.0470
     71 H38        -2.7988    7.2103   -0.6375 H         1 <0>         0.0650
     72 H39        -3.3295    5.5659   -1.0648 H         1 <0>         0.0684
@<TRIPOS>BOND
     1    1    2 1
     2    1   38 1
     3    1   39 1
     4    1   40 1
     5    2   10 1
     6    2   14 1
     7    2    3 1
     8    3    4 1
     9    3   41 1
    10    3   42 1
    11    4    5 1
    12    4    6 1
    13    4   29 1
    14    6    7 1
    15    6   28 1
    16    6    8 1
    17    8    9 1
    18    8   10 1
    19    8   20 1
    20   10   11 1
    21   10   12 1
    22   12   13 1
    23   12   43 1
    24   12   44 1
    25   13   14 1
    26   13   45 1
    27   13   46 1
    28   14   19 1
    29   14   15 1
    30   15   16 2
    31   15   17 1
    32   16   47 1
    33   16   48 1
    34   17   18 1
    35   17   49 1
    36   17   50 1
    37   18   19 1
    38   18   51 1
    39   18   52 1
    40   20   21 1
    41   20   53 1
    42   20   54 1
    43   21   22 1
    44   21   55 1
    45   21   56 1
    46   22   28 1
    47   22   23 2
    48   23   24 1
    49   23   57 1
    50   24   25 2
    51   24   26 1
    52   26   27 1
    53   26   58 1
    54   26   59 1
    55   27   28 1
    56   27   60 1
    57   27   61 1
    58   28   62 1
    59   29   34 ar
    60   29   30 ar
    61   30   31 ar
    62   30   63 1
    63   31   32 ar
    64   31   64 1
    65   32   33 ar
    66   32   35 1
    67   33   34 ar
    68   33   65 1
    69   34   66 1
    70   35   36 1
    71   35   37 1
    72   36   67 1
    73   36   68 1
    74   36   69 1
    75   37   70 1
    76   37   71 1
    77   37   72 1
@<TRIPOS>MOLECULE
CHEMBL258861__1
   72    77     0     0     0
SMALL
USER_CHARGES

@<TRIPOS>ATOM
      1 C1          0.0033    1.5324    0.0459 C.3       1 <0>        -0.2622
      2 C2          0.0281    0.0026    0.0362 C.3       1 <0>        -0.0381
      3 C3         -1.3781   -0.5383    0.2216 C.3       1 <0>        -0.0957
      4 C4         -1.9428    0.1159    1.4895 C.3       1 <0>        -0.0287
      5 H1         -2.9427   -0.2769    1.6740 H         1 <0>         0.0799
      6 C5         -1.0731   -0.1480    2.7176 C.3       1 <0>        -0.0628
      7 H2         -1.1327   -1.2060    2.9730 H         1 <0>         0.0793
      8 C6          0.3915    0.2258    2.4865 C.3       1 <0>        -0.1016
      9 H3          0.4706    1.3025    2.3363 H         1 <0>         0.1072
     10 C7          0.8639   -0.5207    1.2346 C.3       1 <0>        -0.0898
     11 H4          0.7299   -1.5965    1.3477 H         1 <0>         0.0850
     12 C8          2.2939   -0.1968    0.7873 C.3       1 <0>        -0.1158
     13 C9          2.2809   -0.5763   -0.7201 C.3       1 <0>        -0.1350
     14 C10         0.8066   -0.4950   -1.1714 C.3       1 <0>         0.1448
     15 C11         0.3261   -1.8607   -1.6055 C.2       1 <0>        -0.1365
     16 C12         0.2512   -2.9506   -0.8827 C.2       1 <0>        -0.1710
     17 C13        -0.0528   -1.6866   -3.0726 C.3       1 <0>        -0.1284
     18 C14         0.7431   -0.4180   -3.4724 C.3       1 <0>         0.0444
     19 O1          0.6805    0.3996   -2.2812 O.3       1 <0>        -0.3514
     20 C15         1.2825   -0.1893    3.6520 C.3       1 <0>        -0.1103
     21 C16         0.5645   -0.1027    4.9921 C.3       1 <0>        -0.0949
     22 C17        -0.5525    0.9069    4.8954 C.2       1 <0>        -0.0225
     23 C18        -0.5665    1.9796    5.6798 C.2       1 <0>        -0.2431
     24 C19        -1.6386    2.9684    5.5844 C.2       1 <0>         0.3864
     25 O2         -1.6471    3.9279    6.3270 O.2       1 <0>        -0.4694
     26 C20        -2.7347    2.7953    4.5630 C.3       1 <0>        -0.1702
     27 C21        -2.1861    1.9953    3.3766 C.3       1 <0>        -0.1732
     28 C22        -1.6381    0.6772    3.8799 C.3       1 <0>        -0.0633
     29 C23        -2.0363    1.6040    1.2707 C.ar      1 <0>        -0.1968
     30 C24        -3.2327    2.1682    0.8674 C.ar      1 <0>        -0.0638
     31 C25        -3.3218    3.5315    0.6660 C.ar      1 <0>        -0.2553
     32 C26        -2.2079    4.3363    0.8689 C.ar      1 <0>         0.2544
     33 C27        -1.0077    3.7663    1.2740 C.ar      1 <0>        -0.3069
     34 C28        -0.9270    2.4029    1.4791 C.ar      1 <0>         0.0110
     35 N1         -2.2944    5.7155    0.6657 N.pl3     1 <0>        -0.6343
     36 C29        -3.5610    6.3148    0.2380 C.3       1 <0>         0.0924
     37 C30        -1.1187    6.5627    0.8802 C.3       1 <0>         0.0923
     38 H5          0.4253    1.9085   -0.8861 H         1 <0>         0.0724
     39 H6         -1.0256    1.8784    0.1445 H         1 <0>         0.1700
     40 H7          0.5924    1.9000    0.8860 H         1 <0>         0.0897
     41 H8         -1.9943   -0.2764   -0.6385 H         1 <0>         0.0680
     42 H9         -1.3476   -1.6210    0.3433 H         1 <0>         0.0710
     43 H10         2.5073    0.8644    0.9161 H         1 <0>         0.0692
     44 H11         3.0157   -0.8054    1.3321 H         1 <0>         0.0692
     45 H12         2.8866    0.1289   -1.2894 H         1 <0>         0.0740
     46 H13         2.6588   -1.5898   -0.8547 H         1 <0>         0.0697
     47 H14         0.5547   -2.9332    0.1536 H         1 <0>         0.1086
     48 H15        -0.1141   -3.8666   -1.3231 H         1 <0>         0.1063
     49 H16         0.2679   -2.5467   -3.6605 H         1 <0>         0.0832
     50 H17        -1.1249   -1.5211   -3.1790 H         1 <0>         0.0876
     51 H18         1.7759   -0.6711   -3.7116 H         1 <0>         0.0614
     52 H19         0.2653    0.0874   -4.3117 H         1 <0>         0.0935
     53 H20         1.6137   -1.2159    3.4948 H         1 <0>         0.0705
     54 H21         2.1566    0.4614    3.6772 H         1 <0>         0.0674
     55 H22         0.1517   -1.0786    5.2474 H         1 <0>         0.0835
     56 H23         1.2696    0.2076    5.7632 H         1 <0>         0.0766
     57 H24         0.2263    2.1227    6.3991 H         1 <0>         0.1275
     58 H25        -3.5697    2.2570    5.0114 H         1 <0>         0.0929
     59 H26        -3.0711    3.7734    4.2193 H         1 <0>         0.0906
     60 H27        -2.9851    1.8140    2.6577 H         1 <0>         0.1325
     61 H28        -1.3826    2.5557    2.8986 H         1 <0>         0.1175
     62 H29        -2.4485    0.1260    4.3568 H         1 <0>         0.0899
     63 H30        -4.0982    1.5419    0.7095 H         1 <0>         0.1168
     64 H31        -4.2564    3.9715    0.3507 H         1 <0>         0.1145
     65 H32        -0.1396    4.3891    1.4324 H         1 <0>         0.1191
     66 H33         0.0047    1.9597    1.7983 H         1 <0>         0.1887
     67 H34        -4.1465    6.5913    1.1149 H         1 <0>         0.0474
     68 H35        -3.3588    7.2041   -0.3590 H         1 <0>         0.0639
     69 H36        -4.1199    5.5951   -0.3600 H         1 <0>         0.0697
     70 H37        -0.5556    6.6450   -0.0495 H         1 <0>         0.0472
     71 H38        -1.4388    7.5543    1.2001 H         1 <0>         0.0642
     72 H39        -0.4867    6.1191    1.6497 H         1 <0>         0.0693
@<TRIPOS>BOND
     1    1    2 1
     2    1   38 1
     3    1   39 1
     4    1   40 1
     5    2   10 1
     6    2   14 1
     7    2    3 1
     8    3    4 1
     9    3   41 1
    10    3   42 1
    11    4    5 1
    12    4    6 1
    13    4   29 1
    14    6    7 1
    15    6   28 1
    16    6    8 1
    17    8    9 1
    18    8   10 1
    19    8   20 1
    20   10   11 1
    21   10   12 1
    22   12   13 1
    23   12   43 1
    24   12   44 1
    25   13   14 1
    26   13   45 1
    27   13   46 1
    28   14   19 1
    29   14   15 1
    30   15   16 2
    31   15   17 1
    32   16   47 1
    33   16   48 1
    34   17   18 1
    35   17   49 1
    36   17   50 1
    37   18   19 1
    38   18   51 1
    39   18   52 1
    40   20   21 1
    41   20   53 1
    42   20   54 1
    43   21   22 1
    44   21   55 1
    45   21   56 1
    46   22   28 1
    47   22   23 2
    48   23   24 1
    49   23   57 1
    50   24   25 2
    51   24   26 1
    52   26   27 1
    53   26   58 1
    54   26   59 1
    55   27   28 1
    56   27   60 1
    57   27   61 1
    58   28   62 1
    59   29   34 ar
    60   29   30 ar
    61   30   31 ar
    62   30   63 1
    63   31   32 ar
    64   31   64 1
    65   32   33 ar
    66   32   35 1
    67   33   34 ar
    68   33   65 1
    69   34   66 1
    70   35   36 1
    71   35   37 1
    72   36   67 1
    73   36   68 1
    74   36   69 1
    75   37   70 1
    76   37   71 1
    77   37   72 1
@<TRIPOS>MOLECULE
CHEMBL397920
   63    67     0     0     0
SMALL
USER_CHARGES

@<TRIPOS>ATOM
      1 C1         -0.0184    1.5055    0.0103 C.3       1 <0>        -0.1192
      2 C2          0.0021   -0.0041    0.0020 C.2       1 <0>        -0.0579
      3 C3          0.0080   -0.5993   -1.1885 C.2       1 <0>        -0.1661
      4 C4         -0.0686   -2.0883   -1.3560 C.3       1 <0>         0.2146
      5 N1          0.3118   -2.7749   -0.1232 N.pl3     1 <0>        -0.7337
      6 C5          0.0809   -2.1970    1.1205 C.ar      1 <0>         0.2263
      7 C6          0.0245   -0.7901    1.2418 C.ar      1 <0>        -0.0627
      8 C7          0.0699   -0.2584    2.5228 C.ar      1 <0>        -0.0278
      9 C8         -0.3333   -1.0649    3.6362 C.ar      1 <0>        -0.0852
     10 C9         -0.3713   -2.4356    3.4752 C.ar      1 <0>        -0.0519
     11 C10        -0.1074   -2.9949    2.2355 C.ar      1 <0>        -0.1849
     12 C11        -0.6924   -0.3559    4.8816 C.ar      1 <0>        -0.0868
     13 C12        -0.6417    1.0505    4.9010 C.ar      1 <0>         0.1162
     14 C13        -0.9996    1.7514    6.0402 C.ar      1 <0>        -0.1206
     15 C14        -1.3820    1.0791    7.1843 C.ar      1 <0>        -0.1015
     16 C15        -1.4140   -0.3051    7.1899 C.ar      1 <0>         0.0698
     17 C16        -1.0729   -1.0249    6.0448 C.ar      1 <0>         0.1079
     18 O1         -1.1205   -2.3796    6.1175 O.3       1 <0>        -0.3258
     19 C17         0.0705   -3.0490    6.5366 C.3       1 <0>         0.0319
     20 O2         -1.7794   -0.9718    8.3178 O.3       1 <0>        -0.4876
     21 O3         -0.2180    1.7494    3.8106 O.3       1 <0>        -0.2361
     22 C18         0.5621    1.0617    2.9283 C.2       1 <0>         0.1093
     23 C19         1.7656    1.5526    2.5309 C.2       1 <0>        -0.0762
     24 C20         2.1821    2.8350    2.9579 C.2       1 <0>        -0.0687
     25 C21         3.3693    3.5242    2.6627 C.2       1 <0>        -0.0965
     26 C22         3.5317    4.7908    3.2194 C.2       1 <0>        -0.1319
     27 C23         2.5598    5.2979    4.0068 C.2       1 <0>        -0.1949
     28 S1          1.3324    4.0032    4.0064 S.3       1 <0>         0.1204
     29 C24         4.3993    2.9329    1.8014 C.2       1 <0>         0.1959
     30 N2          4.2223    1.7501    1.2959 N.2       1 <0>        -0.3485
     31 O4          5.2164    1.1794    0.4646 O.3       1 <0>        -0.2396
     32 C25         4.8898   -0.1243   -0.0210 C.3       1 <0>         0.0458
     33 C26         5.6628    3.6983    1.5035 C.3       1 <0>        -0.1472
     34 C27         0.8744   -2.5208   -2.4852 C.3       1 <0>        -0.1544
     35 C28        -1.5026   -2.4746   -1.7372 C.3       1 <0>        -0.1601
     36 H1          1.0042    1.8828    0.0026 H         1 <0>         0.0726
     37 H2         -0.5456    1.8665   -0.8727 H         1 <0>         0.0678
     38 H3         -0.5286    1.8570    0.9071 H         1 <0>         0.0673
     39 H4          0.0729    0.0236   -2.0764 H         1 <0>         0.1273
     40 H5          0.7386   -3.6550   -0.1707 H         1 <0>         0.4046
     41 H6         -0.5990   -3.1045    4.2892 H         1 <0>         0.1447
     42 H7         -0.0507   -4.0699    2.1406 H         1 <0>         0.1289
     43 H8         -0.9845    2.8322    6.0320 H         1 <0>         0.1445
     44 H9         -1.6514    1.6323    8.0733 H         1 <0>         0.1466
     45 H10         0.8789   -2.8212    5.8420 H         1 <0>         0.0484
     46 H11         0.3444   -2.7115    7.5362 H         1 <0>         0.0548
     47 H12        -0.1035   -4.1250    6.5514 H         1 <0>         0.0984
     48 H13        -2.7284   -1.1461    8.3816 H         1 <0>         0.3927
     49 H14         2.4038    0.9635    1.8891 H         1 <0>         0.1799
     50 H15         4.4273    5.3616    3.0231 H         1 <0>         0.1408
     51 H16         2.5304    6.2533    4.5094 H         1 <0>         0.1888
     52 H17         3.9713   -0.0745   -0.6058 H         1 <0>         0.0481
     53 H18         5.7011   -0.4917   -0.6494 H         1 <0>         0.0948
     54 H19         4.7479   -0.8009    0.8216 H         1 <0>         0.0472
     55 H20         6.4158    3.4634    2.2558 H         1 <0>         0.0843
     56 H21         6.0339    3.4173    0.5179 H         1 <0>         0.0805
     57 H22         5.4526    4.7676    1.5213 H         1 <0>         0.0794
     58 H23         1.8958   -2.2338   -2.2355 H         1 <0>         0.0628
     59 H24         0.8208   -3.6024   -2.6091 H         1 <0>         0.0634
     60 H25         0.5768   -2.0335   -3.4137 H         1 <0>         0.0738
     61 H26        -1.7744   -1.9850   -2.6723 H         1 <0>         0.0671
     62 H27        -1.5671   -3.5556   -1.8609 H         1 <0>         0.0611
     63 H28        -2.1859   -2.1576   -0.9492 H         1 <0>         0.0572
@<TRIPOS>BOND
     1    1    2 1
     2    1   36 1
     3    1   37 1
     4    1   38 1
     5    2    7 1
     6    2    3 2
     7    3    4 1
     8    3   39 1
     9    4    5 1
    10    4   34 1
    11    4   35 1
    12    5    6 1
    13    5   40 1
    14    6   11 ar
    15    6    7 ar
    16    7    8 ar
    17    8   22 1
    18    8    9 ar
    19    9   10 ar
    20    9   12 1
    21   10   11 ar
    22   10   41 1
    23   11   42 1
    24   12   17 ar
    25   12   13 ar
    26   13   14 ar
    27   13   21 1
    28   14   15 ar
    29   14   43 1
    30   15   16 ar
    31   15   44 1
    32   16   17 ar
    33   16   20 1
    34   17   18 1
    35   18   19 1
    36   19   45 1
    37   19   46 1
    38   19   47 1
    39   20   48 1
    40   21   22 1
    41   22   23 2
    42   23   24 1
    43   23   49 1
    44   24   28 1
    45   24   25 2
    46   25   26 1
    47   25   29 1
    48   26   27 2
    49   26   50 1
    50   27   28 1
    51   27   51 1
    52   29   30 2
    53   29   33 1
    54   30   31 1
    55   31   32 1
    56   32   52 1
    57   32   53 1
    58   32   54 1
    59   33   55 1
    60   33   56 1
    61   33   57 1
    62   34   58 1
    63   34   59 1
    64   34   60 1
    65   35   61 1
    66   35   62 1
    67   35   63 1
@<TRIPOS>MOLECULE
CHEMBL363200
   62    65     0     0     0
SMALL
USER_CHARGES

@<TRIPOS>ATOM
      1 C1         -2.0868   -4.8493   -3.0640 C.3       1 <0>        -0.1033
      2 C2         -2.6929   -5.8319   -2.0954 C.2       1 <0>         0.1569
      3 C3         -3.7300   -5.3979   -1.1471 C.ar      1 <0>        -0.0554
      4 C4         -4.3879   -4.1820   -1.2560 C.ar      1 <0>        -0.1067
      5 C5         -5.3512   -3.8431   -0.3146 C.ar      1 <0>         0.1799
      6 C6         -5.6583   -4.7111    0.7323 C.ar      1 <0>        -0.1054
      7 C7         -5.0138   -5.9243    0.8507 C.ar      1 <0>        -0.0262
      8 C8         -4.0505   -6.2786   -0.0852 C.ar      1 <0>        -0.1648
      9 C9         -3.3215   -7.5581   -0.0431 C.2       1 <0>         0.4863
     10 O1         -3.1493   -8.1575    1.0012 O.2       1 <0>        -0.4344
     11 O2         -2.8532   -8.0359   -1.2175 O.3       1 <0>        -0.1621
     12 N1         -2.3098   -7.0704   -2.0922 N.2       1 <0>        -0.2547
     13 N2         -6.0177   -2.6218   -0.4173 N.am      1 <0>        -0.6785
     14 C10        -7.3202   -2.5347   -0.0818 C.2       1 <0>         0.5023
     15 O3         -7.8926   -3.4979    0.3821 O.2       1 <0>        -0.4966
     16 C11        -8.0651   -1.2403   -0.2833 C.3       1 <0>         0.1391
     17 C12        -8.5600   -0.7210    1.0681 C.3       1 <0>        -0.0660
     18 C13        -9.2745    0.5911    0.8710 C.ar      1 <0>        -0.0771
     19 C14        -8.5554    1.7711    0.8342 C.ar      1 <0>        -0.0918
     20 C15        -9.2108    2.9747    0.6534 C.ar      1 <0>        -0.1209
     21 C16       -10.5854    2.9982    0.5089 C.ar      1 <0>        -0.1189
     22 C17       -11.3045    1.8182    0.5447 C.ar      1 <0>        -0.1204
     23 C18       -10.6486    0.6142    0.7212 C.ar      1 <0>        -0.1165
     24 C19        -9.2612   -1.4787   -1.2071 C.3       1 <0>        -0.1305
     25 C20        -8.7732   -1.6023   -2.6519 C.3       1 <0>        -0.0218
     26 C21        -8.3043   -0.2339   -3.1506 C.3       1 <0>        -0.1462
     27 C22        -7.6096   -2.5939   -2.7141 C.3       1 <0>        -0.1590
     28 C23        -9.9002   -2.0950   -3.5225 C.ar      1 <0>        -0.0686
     29 C24       -11.1404   -2.3515   -2.9682 C.ar      1 <0>        -0.1215
     30 C25       -12.1742   -2.8035   -3.7668 C.ar      1 <0>        -0.1161
     31 C26       -11.9681   -2.9986   -5.1197 C.ar      1 <0>        -0.1238
     32 C27       -10.7282   -2.7413   -5.6741 C.ar      1 <0>        -0.1172
     33 C28        -9.6955   -2.2852   -4.8763 C.ar      1 <0>        -0.1159
     34 O4         -7.1922   -0.2752   -0.8738 O.3       1 <0>        -0.5349
     35 H1         -1.3465   -5.3577   -3.6817 H         1 <0>         0.0943
     36 H2         -2.8695   -4.4367   -3.7005 H         1 <0>         0.0992
     37 H3         -1.6060   -4.0429   -2.5103 H         1 <0>         0.0987
     38 H4         -4.1538   -3.5056   -2.0648 H         1 <0>         0.1499
     39 H5         -6.4078   -4.4306    1.4575 H         1 <0>         0.1553
     40 H6         -5.2555   -6.5927    1.6638 H         1 <0>         0.1507
     41 H7         -5.5438   -1.8354   -0.7301 H         1 <0>         0.4143
     42 H8         -9.2457   -1.4458    1.5069 H         1 <0>         0.0978
     43 H9         -7.7100   -0.5752    1.7347 H         1 <0>         0.0846
     44 H10        -7.4814    1.7527    0.9471 H         1 <0>         0.1228
     45 H11        -8.6490    3.8966    0.6254 H         1 <0>         0.1207
     46 H12       -11.0975    3.9386    0.3683 H         1 <0>         0.1200
     47 H13       -12.3784    1.8366    0.4321 H         1 <0>         0.1210
     48 H14       -11.2100   -0.3081    0.7455 H         1 <0>         0.1202
     49 H15        -9.7683   -2.3983   -0.9150 H         1 <0>         0.0878
     50 H16        -9.9541   -0.6409   -1.1280 H         1 <0>         0.0985
     51 H17        -7.3598    0.0234   -2.6712 H         1 <0>         0.0797
     52 H18        -8.1656   -0.2690   -4.2312 H         1 <0>         0.0514
     53 H19        -9.0535    0.5187   -2.9047 H         1 <0>         0.0603
     54 H20        -7.8427   -3.4662   -2.1035 H         1 <0>         0.0627
     55 H21        -7.4521   -2.9048   -3.7468 H         1 <0>         0.0690
     56 H22        -6.7053   -2.1170   -2.3362 H         1 <0>         0.0525
     57 H23       -11.3014   -2.1991   -1.9112 H         1 <0>         0.1242
     58 H24       -13.1429   -3.0046   -3.3336 H         1 <0>         0.1216
     59 H25       -12.7756   -3.3525   -5.7434 H         1 <0>         0.1209
     60 H26       -10.5670   -2.8941   -6.7310 H         1 <0>         0.1213
     61 H27        -8.7279   -2.0806   -5.3101 H         1 <0>         0.1201
     62 H28        -6.5382   -0.6536   -1.4773 H         1 <0>         0.3710
@<TRIPOS>BOND
     1    1    2 1
     2    1   35 1
     3    1   36 1
     4    1   37 1
     5    2   12 2
     6    2    3 1
     7    3    8 ar
     8    3    4 ar
     9    4    5 ar
    10    4   38 1
    11    5    6 ar
    12    5   13 1
    13    6    7 ar
    14    6   39 1
    15    7    8 ar
    16    7   40 1
    17    8    9 1
    18    9   10 2
    19    9   11 1
    20   11   12 1
    21   13   14 am
    22   13   41 1
    23   14   15 2
    24   14   16 1
    25   16   17 1
    26   16   24 1
    27   16   34 1
    28   17   18 1
    29   17   42 1
    30   17   43 1
    31   18   23 ar
    32   18   19 ar
    33   19   20 ar
    34   19   44 1
    35   20   21 ar
    36   20   45 1
    37   21   22 ar
    38   21   46 1
    39   22   23 ar
    40   22   47 1
    41   23   48 1
    42   24   25 1
    43   24   49 1
    44   24   50 1
    45   25   26 1
    46   25   27 1
    47   25   28 1
    48   26   51 1
    49   26   52 1
    50   26   53 1
    51   27   54 1
    52   27   55 1
    53   27   56 1
    54   28   33 ar
    55   28   29 ar
    56   29   30 ar
    57   29   57 1
    58   30   31 ar
    59   30   58 1
    60   31   32 ar
    61   31   59 1
    62   32   33 ar
    63   32   60 1
    64   33   61 1
    65   34   62 1
@<TRIPOS>MOLECULE
CHEMBL363200__1
   62    65     0     0     0
SMALL
USER_CHARGES

@<TRIPOS>ATOM
      1 C1         -2.7026   -4.8273   -1.4366 C.3       1 <0>        -0.1041
      2 C2         -2.0399   -4.4379   -0.1404 C.2       1 <0>         0.1602
      3 C3         -2.4388   -3.2066    0.5581 C.ar      1 <0>        -0.0541
      4 C4         -3.5847   -2.4956    0.2349 C.ar      1 <0>        -0.0905
      5 C5         -3.8877   -1.3373    0.9389 C.ar      1 <0>         0.1898
      6 C6         -3.0526   -0.8875    1.9607 C.ar      1 <0>        -0.1361
      7 C7         -1.9118   -1.5864    2.2941 C.ar      1 <0>        -0.0222
      8 C8         -1.5973   -2.7486    1.6013 C.ar      1 <0>        -0.1732
      9 C9         -0.4066   -3.5636    1.8979 C.2       1 <0>         0.4871
     10 O1          0.5900   -3.0755    2.3959 O.2       1 <0>        -0.4383
     11 O2         -0.4719   -4.8786    1.5920 O.3       1 <0>        -0.1635
     12 N1         -1.1156   -5.1872    0.3742 N.2       1 <0>        -0.2565
     13 N2         -5.0388   -0.6165    0.6200 N.am      1 <0>        -0.6570
     14 C10        -6.1180   -1.2545    0.1252 C.2       1 <0>         0.4954
     15 O3         -6.1338   -2.4659    0.0700 O.2       1 <0>        -0.5053
     16 C11        -7.3050   -0.4626   -0.3594 C.3       1 <0>         0.1398
     17 C12        -7.0750   -0.0351   -1.8103 C.3       1 <0>        -0.0822
     18 C13        -5.7556    0.6850   -1.9187 C.ar      1 <0>        -0.0962
     19 C14        -5.6996    2.0550   -1.7435 C.ar      1 <0>        -0.0965
     20 C15        -4.4893    2.7156   -1.8430 C.ar      1 <0>        -0.1203
     21 C16        -3.3351    2.0060   -2.1172 C.ar      1 <0>        -0.1165
     22 C17        -3.3910    0.6359   -2.2915 C.ar      1 <0>        -0.1170
     23 C18        -4.6006   -0.0253   -2.1878 C.ar      1 <0>        -0.1128
     24 C19        -8.5639   -1.3281   -0.2761 C.3       1 <0>        -0.1320
     25 C20        -9.7475   -0.5658   -0.8753 C.3       1 <0>        -0.0177
     26 C21        -9.6111    0.9235   -0.5523 C.3       1 <0>        -0.1404
     27 C22        -9.7630   -0.7592   -2.3930 C.3       1 <0>        -0.1628
     28 C23       -11.0323   -1.0915   -0.2888 C.ar      1 <0>        -0.0679
     29 C24       -10.9998   -2.1089    0.6464 C.ar      1 <0>        -0.1274
     30 C25       -12.1783   -2.5911    1.1844 C.ar      1 <0>        -0.1168
     31 C26       -13.3893   -2.0555    0.7876 C.ar      1 <0>        -0.1252
     32 C27       -13.4218   -1.0374   -0.1469 C.ar      1 <0>        -0.1172
     33 C28       -12.2430   -0.5523   -0.6818 C.ar      1 <0>        -0.1143
     34 O4         -7.4697    0.6976    0.4585 O.3       1 <0>        -0.5364
     35 H1         -2.2779   -5.7653   -1.7943 H         1 <0>         0.0940
     36 H2         -3.7732   -4.9517   -1.2743 H         1 <0>         0.1014
     37 H3         -2.5360   -4.0466   -2.1788 H         1 <0>         0.0967
     38 H4         -4.2350   -2.8393   -0.5559 H         1 <0>         0.1584
     39 H5         -3.3015    0.0169    2.4959 H         1 <0>         0.1435
     40 H6         -1.2683   -1.2332    3.0863 H         1 <0>         0.1501
     41 H7         -5.0625    0.3439    0.7544 H         1 <0>         0.4223
     42 H8         -7.0614   -0.9169   -2.4510 H         1 <0>         0.0955
     43 H9         -7.8790    0.6302   -2.1249 H         1 <0>         0.1188
     44 H10        -6.6013    2.6094   -1.5293 H         1 <0>         0.1257
     45 H11        -4.4456    3.7861   -1.7068 H         1 <0>         0.1222
     46 H12        -2.3897    2.5222   -2.1956 H         1 <0>         0.1205
     47 H13        -2.4893    0.0816   -2.5060 H         1 <0>         0.1190
     48 H14        -4.6437   -1.0962   -2.3203 H         1 <0>         0.1140
     49 H15        -8.4072   -2.2519   -0.8331 H         1 <0>         0.0919
     50 H16        -8.7743   -1.5641    0.7670 H         1 <0>         0.0821
     51 H17        -8.7592    1.3360   -1.0929 H         1 <0>         0.0767
     52 H18       -10.5196    1.4452   -0.8532 H         1 <0>         0.0453
     53 H19        -9.4573    1.0502    0.5193 H         1 <0>         0.0673
     54 H20        -9.9210   -1.8127   -2.6234 H         1 <0>         0.0584
     55 H21       -10.5693   -0.1675   -2.8264 H         1 <0>         0.0601
     56 H22        -8.8096   -0.4350   -2.8103 H         1 <0>         0.0752
     57 H23       -10.0537   -2.5274    0.9564 H         1 <0>         0.1259
     58 H24       -12.1530   -3.3865    1.9145 H         1 <0>         0.1204
     59 H25       -14.3101   -2.4326    1.2074 H         1 <0>         0.1202
     60 H26       -14.3679   -0.6191   -0.4572 H         1 <0>         0.1210
     61 H27       -12.2681    0.2457   -1.4091 H         1 <0>         0.1207
     62 H28        -7.6199    0.5016    1.3935 H         1 <0>         0.3810
@<TRIPOS>BOND
     1    1    2 1
     2    1   35 1
     3    1   36 1
     4    1   37 1
     5    2   12 2
     6    2    3 1
     7    3    8 ar
     8    3    4 ar
     9    4    5 ar
    10    4   38 1
    11    5    6 ar
    12    5   13 1
    13    6    7 ar
    14    6   39 1
    15    7    8 ar
    16    7   40 1
    17    8    9 1
    18    9   10 2
    19    9   11 1
    20   11   12 1
    21   13   14 am
    22   13   41 1
    23   14   15 2
    24   14   16 1
    25   16   17 1
    26   16   24 1
    27   16   34 1
    28   17   18 1
    29   17   42 1
    30   17   43 1
    31   18   23 ar
    32   18   19 ar
    33   19   20 ar
    34   19   44 1
    35   20   21 ar
    36   20   45 1
    37   21   22 ar
    38   21   46 1
    39   22   23 ar
    40   22   47 1
    41   23   48 1
    42   24   25 1
    43   24   49 1
    44   24   50 1
    45   25   26 1
    46   25   27 1
    47   25   28 1
    48   26   51 1
    49   26   52 1
    50   26   53 1
    51   27   54 1
    52   27   55 1
    53   27   56 1
    54   28   33 ar
    55   28   29 ar
    56   29   30 ar
    57   29   57 1
    58   30   31 ar
    59   30   58 1
    60   31   32 ar
    61   31   59 1
    62   32   33 ar
    63   32   60 1
    64   33   61 1
    65   34   62 1
@<TRIPOS>MOLECULE
CHEMBL445946
   70    75     0     0     0
SMALL
USER_CHARGES

@<TRIPOS>ATOM
      1 C1         -0.0720    1.5070   -0.1508 C.3       1 <0>        -0.1703
      2 C2         -0.0598   -0.0229   -0.1482 C.3       1 <0>        -0.0407
      3 C3         -1.4453   -0.5494    0.1818 C.3       1 <0>        -0.1000
      4 C4         -1.9046    0.1515    1.4696 C.3       1 <0>        -0.0191
      5 H1         -2.8305   -0.3073    1.8165 H         1 <0>         0.0992
      6 C5         -0.8525    0.0330    2.5546 C.2       1 <0>        -0.0437
      7 C6         -1.2678   -0.2613    3.7847 C.2       1 <0>        -0.1312
      8 C7         -2.7355   -0.4804    4.0727 C.3       1 <0>        -0.0800
      9 C8         -2.8750   -1.6950    4.9957 C.3       1 <0>        -0.1657
     10 C9         -1.9564   -1.5517    6.1789 C.2       1 <0>         0.3871
     11 O1         -2.3158   -1.9613    7.2644 O.2       1 <0>        -0.4715
     12 C10        -0.6901   -0.9537    6.0531 C.2       1 <0>        -0.2491
     13 C11        -0.3240   -0.3586    4.8980 C.2       1 <0>         0.0278
     14 C12         1.0516    0.2320    4.7071 C.3       1 <0>        -0.0965
     15 C13         1.5500   -0.1918    3.3263 C.3       1 <0>        -0.1108
     16 C14         0.6030    0.2474    2.2231 C.3       1 <0>        -0.0495
     17 H2          0.7666    1.3049    2.0160 H         1 <0>         0.0965
     18 C15         0.9018   -0.5417    0.9550 C.3       1 <0>        -0.0762
     19 H3          0.7556   -1.6092    1.1201 H         1 <0>         0.0820
     20 C16         2.2777   -0.2575    0.3378 C.3       1 <0>        -0.1152
     21 C17         2.0827   -0.6526   -1.1520 C.3       1 <0>        -0.1039
     22 C18         0.5710   -0.5369   -1.4326 C.3       1 <0>        -0.1092
     23 C19         0.0005   -1.9094   -1.8220 C.3       1 <0>        -0.1174
     24 C20        -0.0262   -1.8663   -3.3725 C.3       1 <0>        -0.1206
     25 C21        -0.4055   -0.3917   -3.6585 C.3       1 <0>        -0.1859
     26 C22         0.3227    0.4025   -2.5861 C.2       1 <0>         0.3804
     27 O2          0.6423    1.5654   -2.6466 O.2       1 <0>        -0.4311
     28 C23        -2.1529    1.6091    1.1787 C.ar      1 <0>        -0.1118
     29 C24        -2.8063    1.9793    0.0175 C.ar      1 <0>        -0.0698
     30 C25        -3.0355    3.3143   -0.2521 C.ar      1 <0>        -0.1915
     31 C26        -2.6088    4.2856    0.6446 C.ar      1 <0>         0.2130
     32 C27        -1.9528    3.9102    1.8101 C.ar      1 <0>        -0.1946
     33 C28        -1.7319    2.5732    2.0763 C.ar      1 <0>        -0.0753
     34 N1         -2.8385    5.6366    0.3748 N.pl3     1 <0>        -0.6388
     35 C29        -3.4145    6.0393   -0.9107 C.3       1 <0>         0.0941
     36 C30        -2.5036    6.6510    1.3773 C.3       1 <0>         0.0894
     37 H4          0.8887    1.8774   -0.5084 H         1 <0>         0.0570
     38 H5         -0.8659    1.8630   -0.8074 H         1 <0>         0.0638
     39 H6         -0.2476    1.8707    0.8617 H         1 <0>         0.0878
     40 H7         -2.1332   -0.3189   -0.6317 H         1 <0>         0.0720
     41 H8         -1.4046   -1.6271    0.3402 H         1 <0>         0.0749
     42 H9         -3.1480    0.4013    4.5631 H         1 <0>         0.0808
     43 H10        -3.2678   -0.6665    3.1399 H         1 <0>         0.0929
     44 H11        -3.9052   -1.7678    5.3445 H         1 <0>         0.0940
     45 H12        -2.6168   -2.5994    4.4449 H         1 <0>         0.0988
     46 H13        -0.0050   -0.9699    6.8878 H         1 <0>         0.1341
     47 H14         0.9981    1.3192    4.7632 H         1 <0>         0.0881
     48 H15         1.7260   -0.1459    5.4755 H         1 <0>         0.0846
     49 H16         2.5296    0.2530    3.1508 H         1 <0>         0.0764
     50 H17         1.6452   -1.2773    3.3012 H         1 <0>         0.0682
     51 H18         2.5288    0.7995    0.4263 H         1 <0>         0.0711
     52 H19         3.0442   -0.8769    0.8035 H         1 <0>         0.0696
     53 H20         2.6368    0.0299   -1.7964 H         1 <0>         0.0652
     54 H21         2.4168   -1.6772   -1.3149 H         1 <0>         0.0744
     55 H22         0.6529   -2.7093   -1.4718 H         1 <0>         0.0775
     56 H23        -1.0068   -2.0329   -1.4244 H         1 <0>         0.0824
     57 H24         0.9558   -2.1004   -3.7835 H         1 <0>         0.0726
     58 H25        -0.7836   -2.5444   -3.7658 H         1 <0>         0.0784
     59 H26        -0.0625   -0.0959   -4.6500 H         1 <0>         0.0893
     60 H27        -1.4828   -0.2517   -3.5701 H         1 <0>         0.1018
     61 H28        -3.1374    1.2237   -0.6794 H         1 <0>         0.1187
     62 H29        -3.5455    3.6028   -1.1594 H         1 <0>         0.1191
     63 H30        -1.6195    4.6629    2.5092 H         1 <0>         0.1208
     64 H31        -1.2258    2.2804    2.9843 H         1 <0>         0.1205
     65 H32        -4.5015    6.0580   -0.8319 H         1 <0>         0.0474
     66 H33        -3.0522    7.0325   -1.1759 H         1 <0>         0.0658
     67 H34        -3.1182    5.3269   -1.6806 H         1 <0>         0.0678
     68 H35        -2.1833    6.1613    2.2969 H         1 <0>         0.0770
     69 H36        -1.6974    7.2810    1.0014 H         1 <0>         0.0515
     70 H37        -3.3808    7.2656    1.5795 H         1 <0>         0.0556
@<TRIPOS>BOND
     1    1    2 1
     2    1   37 1
     3    1   38 1
     4    1   39 1
     5    2   18 1
     6    2   22 1
     7    2    3 1
     8    3    4 1
     9    3   40 1
    10    3   41 1
    11    4    5 1
    12    4    6 1
    13    4   28 1
    14    6   16 1
    15    6    7 2
    16    7   13 1
    17    7    8 1
    18    8    9 1
    19    8   42 1
    20    8   43 1
    21    9   10 1
    22    9   44 1
    23    9   45 1
    24   10   11 2
    25   10   12 1
    26   12   13 2
    27   12   46 1
    28   13   14 1
    29   14   15 1
    30   14   47 1
    31   14   48 1
    32   15   16 1
    33   15   49 1
    34   15   50 1
    35   16   17 1
    36   16   18 1
    37   18   19 1
    38   18   20 1
    39   20   21 1
    40   20   51 1
    41   20   52 1
    42   21   22 1
    43   21   53 1
    44   21   54 1
    45   22   26 1
    46   22   23 1
    47   23   24 1
    48   23   55 1
    49   23   56 1
    50   24   25 1
    51   24   57 1
    52   24   58 1
    53   25   26 1
    54   25   59 1
    55   25   60 1
    56   26   27 2
    57   28   33 ar
    58   28   29 ar
    59   29   30 ar
    60   29   61 1
    61   30   31 ar
    62   30   62 1
    63   31   32 ar
    64   31   34 1
    65   32   33 ar
    66   32   63 1
    67   33   64 1
    68   34   35 1
    69   34   36 1
    70   35   65 1
    71   35   66 1
    72   35   67 1
    73   36   68 1
    74   36   69 1
    75   36   70 1
@<TRIPOS>MOLECULE
CHEMBL408696
   51    54     0     0     0
SMALL
USER_CHARGES

@<TRIPOS>ATOM
      1 C1         -0.0472    1.6447   -0.0571 C.3       1 <0>        -0.1281
      2 C2          0.1128    0.1976   -0.5273 C.3       1 <0>        -0.0541
      3 C3         -1.2025   -0.5406   -0.4266 C.ar      1 <0>        -0.1016
      4 C4         -2.4267   -0.3486   -1.0205 C.ar      1 <0>        -0.0756
      5 C5         -3.4852   -1.2130   -0.7273 C.ar      1 <0>        -0.0163
      6 C6         -3.2864   -2.2661    0.1690 C.ar      1 <0>        -0.0924
      7 C7         -2.0555   -2.4501    0.7596 C.ar      1 <0>         0.0871
      8 C8         -0.9967   -1.5861    0.4663 C.ar      1 <0>         0.1250
      9 N1          0.3188   -1.5703    0.9311 N.am      1 <0>        -0.5409
     10 C9          1.0338   -0.5634    0.4024 C.2       1 <0>         0.5361
     11 O1          2.1988   -0.3115    0.6274 O.2       1 <0>        -0.4815
     12 C10         0.8585   -2.5409    1.8866 C.3       1 <0>         0.1314
     13 C11         1.3439   -1.8081    3.1389 C.3       1 <0>        -0.1324
     14 C12         1.9075   -2.8217    4.1367 C.3       1 <0>        -0.1142
     15 C13         3.0791   -3.5696    3.4972 C.3       1 <0>        -0.1235
     16 C14         2.5938   -4.3024    2.2449 C.3       1 <0>        -0.1143
     17 C15         2.0301   -3.2888    1.2470 C.3       1 <0>        -0.1325
     18 F1         -1.8708   -3.4704    1.6257 F         1 <0>        -0.1302
     19 C16        -4.8048   -1.0142   -1.3604 C.2       1 <0>         0.0931
     20 C17        -5.7845   -1.9731   -1.5016 C.2       1 <0>        -0.1728
     21 C18        -6.8672   -1.3793   -2.1490 C.2       1 <0>        -0.1070
     22 C19        -6.5322   -0.0625   -2.3945 C.2       1 <0>         0.0600
     23 N2         -5.2652    0.1533   -1.9007 N.pl3     1 <0>        -0.4142
     24 C20        -4.5323    1.4209   -1.9496 C.3       1 <0>         0.0541
     25 C21        -7.3593    0.9095   -3.0438 C.1       1 <0>         0.2757
     26 N3         -8.0155    1.6806   -3.5589 N.1       1 <0>        -0.4014
     27 C22         0.6454    0.1570   -1.9610 C.3       1 <0>        -0.1277
     28 H1          0.9233    2.1407   -0.0709 H         1 <0>         0.0756
     29 H2         -0.7328    2.1693   -0.7226 H         1 <0>         0.0740
     30 H3         -0.4462    1.6552    0.9572 H         1 <0>         0.0625
     31 H4         -2.5708    0.4686   -1.7118 H         1 <0>         0.1394
     32 H5         -4.1001   -2.9376    0.3998 H         1 <0>         0.1545
     33 H6          0.0796   -3.2524    2.1609 H         1 <0>         0.1060
     34 H7          2.1227   -1.0966    2.8646 H         1 <0>         0.0795
     35 H8          0.5092   -1.2753    3.5945 H         1 <0>         0.0644
     36 H9          2.2533   -2.2996    5.0289 H         1 <0>         0.0694
     37 H10         1.1287   -3.5332    4.4110 H         1 <0>         0.0650
     38 H11         3.8580   -2.8581    3.2228 H         1 <0>         0.0653
     39 H12         3.4807   -4.2917    4.2080 H         1 <0>         0.0667
     40 H13         3.4285   -4.8352    1.7892 H         1 <0>         0.0695
     41 H14         1.8149   -5.0139    2.5192 H         1 <0>         0.0650
     42 H15         1.6843   -3.8109    0.3549 H         1 <0>         0.0648
     43 H16         2.8090   -2.5773    0.9727 H         1 <0>         0.0796
     44 H17        -5.7244   -2.9993   -1.1706 H         1 <0>         0.1544
     45 H18        -7.7976   -1.8613   -2.4108 H         1 <0>         0.1555
     46 H19        -3.8743    1.4268   -2.8186 H         1 <0>         0.0868
     47 H20        -5.2397    2.2469   -2.0239 H         1 <0>         0.0896
     48 H21        -3.9378    1.5321   -1.0429 H         1 <0>         0.0982
     49 H22         1.6096    0.6634   -2.0049 H         1 <0>         0.0753
     50 H23         0.7650   -0.8799   -2.2750 H         1 <0>         0.0628
     51 H24        -0.0590    0.6586   -2.6246 H         1 <0>         0.0743
@<TRIPOS>BOND
     1    1    2 1
     2    1   28 1
     3    1   29 1
     4    1   30 1
     5    2   10 1
     6    2    3 1
     7    2   27 1
     8    3    8 ar
     9    3    4 ar
    10    4    5 ar
    11    4   31 1
    12    5    6 ar
    13    5   19 1
    14    6    7 ar
    15    6   32 1
    16    7    8 ar
    17    7   18 1
    18    8    9 1
    19    9   10 am
    20    9   12 1
    21   10   11 2
    22   12   17 1
    23   12   13 1
    24   12   33 1
    25   13   14 1
    26   13   34 1
    27   13   35 1
    28   14   15 1
    29   14   36 1
    30   14   37 1
    31   15   16 1
    32   15   38 1
    33   15   39 1
    34   16   17 1
    35   16   40 1
    36   16   41 1
    37   17   42 1
    38   17   43 1
    39   19   23 1
    40   19   20 2
    41   20   21 1
    42   20   44 1
    43   21   22 2
    44   21   45 1
    45   22   23 1
    46   22   25 1
    47   23   24 1
    48   24   46 1
    49   24   47 1
    50   24   48 1
    51   25   26 3
    52   27   49 1
    53   27   50 1
    54   27   51 1
@<TRIPOS>MOLECULE
CHEMBL34824
   52    56     0     0     0
SMALL
USER_CHARGES

@<TRIPOS>ATOM
      1 C1          0.5895    0.9998   -0.0859 C.3       1 <0>        -0.1466
      2 C2          0.3962   -0.5281   -0.2827 C.3       1 <0>        -0.0984
      3 C3         -1.0203   -0.8036    0.0588 C.ar      1 <0>        -0.0963
      4 C4         -1.4096   -1.0266    1.3793 C.ar      1 <0>         0.2051
      5 C5         -2.7340   -1.2654    1.7107 C.ar      1 <0>        -0.1498
      6 C6         -3.6592   -1.4525    0.7150 C.ar      1 <0>        -0.0691
      7 C7         -3.3545   -1.3376   -0.5960 C.ar      1 <0>        -0.0633
      8 C8         -2.0348   -0.9332   -0.9485 C.ar      1 <0>        -0.0418
      9 C9         -1.8125   -0.6976   -2.4005 C.2       1 <0>         0.0925
     10 C10        -1.0467    0.3015   -2.9101 C.2       1 <0>        -0.1305
     11 C11        -0.7551    0.3427   -4.3518 C.ar      1 <0>        -0.0233
     12 C12        -0.4929    1.5641   -4.9812 C.ar      1 <0>        -0.1169
     13 C13        -0.2204    1.5959   -6.3324 C.ar      1 <0>        -0.0918
     14 C14        -0.2061    0.4235   -7.0674 C.ar      1 <0>        -0.1518
     15 C15        -0.4647   -0.7914   -6.4522 C.ar      1 <0>         0.0973
     16 C16        -0.7332   -0.8393   -5.0980 C.ar      1 <0>        -0.1302
     17 F1         -0.4492   -1.9312   -7.1773 F         1 <0>        -0.1387
     18 O1         -2.4169   -1.5223   -3.2673 O.3       1 <0>        -0.2220
     19 C17        -3.7779   -1.5704   -3.0485 C.ar      1 <0>         0.0861
     20 C18        -4.3369   -1.5127   -1.7248 C.ar      1 <0>        -0.0853
     21 C19        -5.6746   -1.5976   -1.5200 C.ar      1 <0>        -0.0777
     22 C20        -6.4884   -1.7297   -2.5701 C.ar      1 <0>        -0.1304
     23 C21        -5.9870   -1.9065   -3.8039 C.ar      1 <0>        -0.0975
     24 C22        -4.6776   -1.8799   -4.1130 C.ar      1 <0>        -0.1137
     25 N1         -0.4141   -1.1366    2.3607 N.pl3     1 <0>        -0.7400
     26 C23         0.9509   -1.5569    2.0605 C.3       1 <0>         0.1501
     27 C24         1.3600   -1.1757    0.6762 C.2       1 <0>         0.3782
     28 O2          2.4809   -1.3480    0.2919 O.2       1 <0>        -0.4332
     29 C25         1.9149   -1.0472    3.0666 C.3       1 <0>        -0.1549
     30 C26         0.9760   -3.1106    2.1201 C.3       1 <0>        -0.1597
     31 H1          1.6277    1.2636   -0.2875 H         1 <0>         0.0674
     32 H2         -0.0625    1.5399   -0.7724 H         1 <0>         0.0729
     33 H3          0.3390    1.2685    0.9403 H         1 <0>         0.0641
     34 H4          0.6571   -0.7024   -1.3185 H         1 <0>         0.1183
     35 H5         -2.9993   -1.4213    2.7568 H         1 <0>         0.1370
     36 H6         -4.7283   -1.5235    0.9857 H         1 <0>         0.1296
     37 H7         -0.6518    1.0658   -2.2573 H         1 <0>         0.1490
     38 H8         -0.5042    2.4806   -4.4099 H         1 <0>         0.1313
     39 H9         -0.0179    2.5387   -6.8187 H         1 <0>         0.1350
     40 H10         0.0073    0.4552   -8.1256 H         1 <0>         0.1353
     41 H11        -0.9303   -1.7866   -4.6181 H         1 <0>         0.1438
     42 H12        -6.0976   -1.4816   -0.4848 H         1 <0>         0.1372
     43 H13        -7.5883   -1.8214   -2.3986 H         1 <0>         0.1328
     44 H14        -6.6714   -1.9954   -4.6686 H         1 <0>         0.1249
     45 H15        -4.3427   -1.9477   -5.1023 H         1 <0>         0.1346
     46 H16        -0.6591   -0.8769    3.2540 H         1 <0>         0.4007
     47 H17         1.6472   -1.4284    4.0521 H         1 <0>         0.0783
     48 H18         2.9199   -1.3812    2.8086 H         1 <0>         0.0870
     49 H19         1.8859    0.0423    3.0782 H         1 <0>         0.0669
     50 H20         0.2798   -3.5138    1.3847 H         1 <0>         0.0614
     51 H21         1.9827   -3.4664    1.9007 H         1 <0>         0.0714
     52 H22         0.6832   -3.4408    3.1168 H         1 <0>         0.0746
@<TRIPOS>BOND
     1    1    2 1
     2    1   31 1
     3    1   32 1
     4    1   33 1
     5    2   27 1
     6    2    3 1
     7    2   34 1
     8    3    8 ar
     9    3    4 ar
    10    4    5 ar
    11    4   25 1
    12    5    6 ar
    13    5   35 1
    14    6    7 ar
    15    6   36 1
    16    7   20 1
    17    7    8 ar
    18    8    9 1
    19    9   10 2
    20    9   18 1
    21   10   11 1
    22   10   37 1
    23   11   16 ar
    24   11   12 ar
    25   12   13 ar
    26   12   38 1
    27   13   14 ar
    28   13   39 1
    29   14   15 ar
    30   14   40 1
    31   15   16 ar
    32   15   17 1
    33   16   41 1
    34   18   19 1
    35   19   24 ar
    36   19   20 ar
    37   20   21 ar
    38   21   22 ar
    39   21   42 1
    40   22   23 ar
    41   22   43 1
    42   23   24 ar
    43   23   44 1
    44   24   45 1
    45   25   26 1
    46   25   46 1
    47   26   27 1
    48   26   29 1
    49   26   30 1
    50   27   28 2
    51   29   47 1
    52   29   48 1
    53   29   49 1
    54   30   50 1
    55   30   51 1
    56   30   52 1
@<TRIPOS>MOLECULE
CHEMBL34824__1
   52    56     0     0     0
SMALL
USER_CHARGES

@<TRIPOS>ATOM
      1 C1          0.2274    2.0505   -0.3221 C.3       1 <0>        -0.1476
      2 C2          0.2465    0.5413   -0.0715 C.3       1 <0>        -0.1116
      3 C3          0.4897   -0.1811   -1.3726 C.ar      1 <0>        -0.1036
      4 C4          1.7106   -0.7636   -1.6705 C.ar      1 <0>         0.2188
      5 C5          1.8992   -1.4106   -2.8945 C.ar      1 <0>        -0.1635
      6 C6          0.8797   -1.4924   -3.8201 C.ar      1 <0>        -0.0594
      7 C7         -0.3502   -0.9232   -3.5309 C.ar      1 <0>        -0.0710
      8 C8         -0.5439   -0.2598   -2.2998 C.ar      1 <0>        -0.0389
      9 C9         -1.8725    0.3371   -2.0528 C.2       1 <0>         0.1215
     10 C10        -2.3303    0.5365   -0.7969 C.2       1 <0>        -0.1544
     11 C11        -3.2876    1.6207   -0.5262 C.ar      1 <0>        -0.0143
     12 C12        -3.6361    2.5198   -1.5396 C.ar      1 <0>        -0.1169
     13 C13        -4.5336    3.5336   -1.2796 C.ar      1 <0>        -0.0892
     14 C14        -5.0902    3.6643   -0.0193 C.ar      1 <0>        -0.1552
     15 C15        -4.7508    2.7781    0.9909 C.ar      1 <0>         0.0999
     16 C16        -3.8577    1.7538    0.7434 C.ar      1 <0>        -0.1472
     17 F1         -5.2984    2.9132    2.2185 F         1 <0>        -0.1396
     18 O1         -2.6192    0.6798   -3.1425 O.3       1 <0>        -0.2388
     19 C17        -2.6057   -0.1527   -4.2154 C.ar      1 <0>         0.1169
     20 C18        -1.4952   -0.9731   -4.4646 C.ar      1 <0>        -0.0983
     21 C19        -1.4853   -1.8152   -5.5710 C.ar      1 <0>        -0.0788
     22 C20        -2.5737   -1.8436   -6.4206 C.ar      1 <0>        -0.1372
     23 C21        -3.6710   -1.0374   -6.1729 C.ar      1 <0>        -0.0857
     24 C22        -3.6906   -0.1966   -5.0768 C.ar      1 <0>        -0.1312
     25 N1          2.7792   -0.7432   -0.7690 N.pl3     1 <0>        -0.7313
     26 C23         2.7672    0.1908    0.3642 C.3       1 <0>         0.1338
     27 C24         1.3500    0.2070    0.9056 C.2       1 <0>         0.3669
     28 O2          1.1144   -0.0361    2.0647 O.2       1 <0>        -0.4291
     29 C25         3.7351   -0.2891    1.4476 C.3       1 <0>        -0.1491
     30 C26         3.1619    1.5914   -0.1085 C.3       1 <0>        -0.1639
     31 H1          1.1047    2.3333   -0.9038 H         1 <0>         0.0726
     32 H2         -0.6749    2.3159   -0.8731 H         1 <0>         0.0765
     33 H3          0.2387    2.5774    0.6320 H         1 <0>         0.0661
     34 H4         -0.7123    0.2298    0.3430 H         1 <0>         0.1266
     35 H5          2.8583   -1.8533   -3.1195 H         1 <0>         0.1320
     36 H6          1.0386   -1.9961   -4.7621 H         1 <0>         0.1348
     37 H7         -1.9935   -0.0999    0.0080 H         1 <0>         0.1593
     38 H8         -3.2026    2.4203   -2.5238 H         1 <0>         0.1420
     39 H9         -4.8030    4.2280   -2.0617 H         1 <0>         0.1335
     40 H10        -5.7921    4.4610    0.1782 H         1 <0>         0.1345
     41 H11        -3.5968    1.0607    1.5295 H         1 <0>         0.1364
     42 H12        -0.6294   -2.4445   -5.7655 H         1 <0>         0.1311
     43 H13        -2.5684   -2.4965   -7.2809 H         1 <0>         0.1304
     44 H14        -4.5190   -1.0665   -6.8411 H         1 <0>         0.1341
     45 H15        -4.5517    0.4286   -4.8920 H         1 <0>         0.1363
     46 H16         3.5288   -1.3465   -0.8920 H         1 <0>         0.4094
     47 H17         4.7433   -0.3415    1.0366 H         1 <0>         0.0719
     48 H18         3.7196    0.4096    2.2841 H         1 <0>         0.0808
     49 H19         3.4320   -1.2772    1.7939 H         1 <0>         0.0687
     50 H20         2.5981    1.8441   -1.0064 H         1 <0>         0.0761
     51 H21         2.9401    2.3154    0.6756 H         1 <0>         0.0715
     52 H22         4.2287    1.6124   -0.3313 H         1 <0>         0.0736
@<TRIPOS>BOND
     1    1    2 1
     2    1   31 1
     3    1   32 1
     4    1   33 1
     5    2   27 1
     6    2    3 1
     7    2   34 1
     8    3    8 ar
     9    3    4 ar
    10    4    5 ar
    11    4   25 1
    12    5    6 ar
    13    5   35 1
    14    6    7 ar
    15    6   36 1
    16    7   20 1
    17    7    8 ar
    18    8    9 1
    19    9   10 2
    20    9   18 1
    21   10   11 1
    22   10   37 1
    23   11   16 ar
    24   11   12 ar
    25   12   13 ar
    26   12   38 1
    27   13   14 ar
    28   13   39 1
    29   14   15 ar
    30   14   40 1
    31   15   16 ar
    32   15   17 1
    33   16   41 1
    34   18   19 1
    35   19   24 ar
    36   19   20 ar
    37   20   21 ar
    38   21   22 ar
    39   21   42 1
    40   22   23 ar
    41   22   43 1
    42   23   24 ar
    43   23   44 1
    44   24   45 1
    45   25   26 1
    46   25   46 1
    47   26   27 1
    48   26   29 1
    49   26   30 1
    50   27   28 2
    51   29   47 1
    52   29   48 1
    53   29   49 1
    54   30   50 1
    55   30   51 1
    56   30   52 1
@<TRIPOS>MOLECULE
CHEMBL34882
   53    57     0     0     0
SMALL
USER_CHARGES

@<TRIPOS>ATOM
      1 C1         -0.2128    1.2341   -0.7067 C.3       1 <0>        -0.1482
      2 C2         -0.0312   -0.2745   -0.4597 C.3       1 <0>        -0.0427
      3 C3         -1.3954   -0.9258   -0.6778 C.3       1 <0>        -0.1225
      4 C4         -1.4518   -2.3095   -0.0300 C.3       1 <0>         0.1737
      5 N1         -1.2184   -2.1309    1.4088 N.pl3     1 <0>        -0.7374
      6 C5         -0.1432   -1.3359    1.8192 C.ar      1 <0>         0.2242
      7 C6          0.4965   -0.4761    0.9331 C.ar      1 <0>        -0.0984
      8 C7          1.6705    0.1386    1.3469 C.ar      1 <0>        -0.0360
      9 C8          2.0311    0.1081    2.7213 C.ar      1 <0>        -0.0850
     10 C9          1.3094   -0.6637    3.6162 C.ar      1 <0>        -0.0616
     11 C10         0.2346   -1.3952    3.1590 C.ar      1 <0>        -0.1776
     12 C11         3.1780    0.9355    3.1543 C.ar      1 <0>        -0.0933
     13 C12         3.6878    0.8327    4.4458 C.ar      1 <0>        -0.0830
     14 C13         4.7631    1.6113    4.8244 C.ar      1 <0>        -0.1377
     15 C14         5.3369    2.4935    3.9250 C.ar      1 <0>        -0.0886
     16 C15         4.8386    2.6057    2.6412 C.ar      1 <0>        -0.1322
     17 C16         3.7589    1.8321    2.2473 C.ar      1 <0>         0.1083
     18 O1          3.2586    1.9435    0.9887 O.3       1 <0>        -0.2405
     19 C17         2.6236    0.8478    0.4758 C.2       1 <0>         0.1150
     20 C18         2.9377    0.4186   -0.7687 C.2       1 <0>        -0.1312
     21 C19         3.7497    1.2661   -1.6561 C.ar      1 <0>        -0.0195
     22 C20         4.2152    0.7633   -2.8756 C.ar      1 <0>        -0.1200
     23 C21         4.9752    1.5627   -3.7028 C.ar      1 <0>        -0.0922
     24 C22         5.2790    2.8604   -3.3300 C.ar      1 <0>        -0.1555
     25 C23         4.8220    3.3670   -2.1235 C.ar      1 <0>         0.0969
     26 C24         4.0548    2.5797   -1.2871 C.ar      1 <0>        -0.1460
     27 F1          5.1232    4.6349   -1.7672 F         1 <0>        -0.1399
     28 C25        -2.8385   -2.9254   -0.2477 C.3       1 <0>        -0.1549
     29 C26        -0.3870   -3.2297   -0.6269 C.3       1 <0>        -0.1595
     30 H1          0.7476    1.7381   -0.5987 H         1 <0>         0.0619
     31 H2         -0.5956    1.3937   -1.7147 H         1 <0>         0.0596
     32 H3         -0.9190    1.6386    0.0184 H         1 <0>         0.0549
     33 H4          0.6726   -0.6682   -1.1890 H         1 <0>         0.0825
     34 H5         -2.1714   -0.2884   -0.2451 H         1 <0>         0.0710
     35 H6         -1.5811   -1.0187   -1.7518 H         1 <0>         0.0781
     36 H7         -1.7972   -2.5553    2.0598 H         1 <0>         0.4025
     37 H8          1.5823   -0.6932    4.6605 H         1 <0>         0.1301
     38 H9         -0.3198   -2.0195    3.8440 H         1 <0>         0.1268
     39 H10         3.2454    0.1461    5.1517 H         1 <0>         0.1297
     40 H11         5.1587    1.5310    5.8264 H         1 <0>         0.1290
     41 H12         6.1794    3.0969    4.2281 H         1 <0>         0.1329
     42 H13         5.2914    3.2967    1.9457 H         1 <0>         0.1342
     43 H14         2.5923   -0.5459   -1.1105 H         1 <0>         0.1483
     44 H15         3.9801   -0.2493   -3.1685 H         1 <0>         0.1304
     45 H16         5.3349    1.1749   -4.6445 H         1 <0>         0.1336
     46 H17         5.8754    3.4812   -3.9821 H         1 <0>         0.1339
     47 H18         3.6951    2.9762   -0.3492 H         1 <0>         0.1598
     48 H19        -3.0310   -3.0186   -1.3165 H         1 <0>         0.0739
     49 H20        -2.8748   -3.9115    0.2154 H         1 <0>         0.0631
     50 H21        -3.5957   -2.2841    0.2033 H         1 <0>         0.0628
     51 H22         0.6006   -2.8011   -0.4564 H         1 <0>         0.0599
     52 H23        -0.4451   -4.2089   -0.1516 H         1 <0>         0.0597
     53 H24        -0.5572   -3.3352   -1.6984 H         1 <0>         0.0668
@<TRIPOS>BOND
     1    1    2 1
     2    1   30 1
     3    1   31 1
     4    1   32 1
     5    2    7 1
     6    2    3 1
     7    2   33 1
     8    3    4 1
     9    3   34 1
    10    3   35 1
    11    4    5 1
    12    4   28 1
    13    4   29 1
    14    5    6 1
    15    5   36 1
    16    6   11 ar
    17    6    7 ar
    18    7    8 ar
    19    8   19 1
    20    8    9 ar
    21    9   10 ar
    22    9   12 1
    23   10   11 ar
    24   10   37 1
    25   11   38 1
    26   12   17 ar
    27   12   13 ar
    28   13   14 ar
    29   13   39 1
    30   14   15 ar
    31   14   40 1
    32   15   16 ar
    33   15   41 1
    34   16   17 ar
    35   16   42 1
    36   17   18 1
    37   18   19 1
    38   19   20 2
    39   20   21 1
    40   20   43 1
    41   21   26 ar
    42   21   22 ar
    43   22   23 ar
    44   22   44 1
    45   23   24 ar
    46   23   45 1
    47   24   25 ar
    48   24   46 1
    49   25   26 ar
    50   25   27 1
    51   26   47 1
    52   28   48 1
    53   28   49 1
    54   28   50 1
    55   29   51 1
    56   29   52 1
    57   29   53 1
@<TRIPOS>MOLECULE
CHEMBL34882__1
   53    57     0     0     0
SMALL
USER_CHARGES

@<TRIPOS>ATOM
      1 C1         -0.0095    1.4485   -0.0257 C.3       1 <0>        -0.1565
      2 C2         -0.0434   -0.0951   -0.0210 C.3       1 <0>        -0.0503
      3 C3          0.5757   -0.5278   -1.3475 C.3       1 <0>        -0.1237
      4 C4          1.2773   -1.8788   -1.2433 C.3       1 <0>         0.1747
      5 N1          2.2912   -1.7597   -0.1866 N.pl3     1 <0>        -0.7385
      6 C5          1.8718   -1.2936    1.0631 C.ar      1 <0>         0.2220
      7 C6          0.6862   -0.5741    1.1975 C.ar      1 <0>        -0.0955
      8 C7          0.1755   -0.4080    2.4855 C.ar      1 <0>        -0.0293
      9 C8          1.0598   -0.5804    3.5858 C.ar      1 <0>        -0.0841
     10 C9          2.3229   -1.1231    3.4099 C.ar      1 <0>        -0.0636
     11 C10         2.7173   -1.5040    2.1478 C.ar      1 <0>        -0.1751
     12 C11         0.6073   -0.1646    4.9303 C.ar      1 <0>        -0.0975
     13 C12         1.5071    0.0065    5.9774 C.ar      1 <0>        -0.0825
     14 C13         1.0477    0.4127    7.2149 C.ar      1 <0>        -0.1375
     15 C14        -0.3008    0.6544    7.4140 C.ar      1 <0>        -0.0889
     16 C15        -1.2032    0.4817    6.3816 C.ar      1 <0>        -0.1312
     17 C16        -0.7585    0.0621    5.1389 C.ar      1 <0>         0.1096
     18 O1         -1.6237   -0.1673    4.1267 O.3       1 <0>        -0.2419
     19 C17        -1.1984   -0.0123    2.8321 C.2       1 <0>         0.1182
     20 C18        -2.1084    0.4944    1.9690 C.2       1 <0>        -0.1604
     21 C19        -3.5004    0.6956    2.4016 C.ar      1 <0>        -0.0153
     22 C20        -4.3117    1.6287    1.7475 C.ar      1 <0>        -0.1216
     23 C21        -5.6152    1.8122    2.1574 C.ar      1 <0>        -0.0919
     24 C22        -6.1228    1.0765    3.2139 C.ar      1 <0>        -0.1565
     25 C23        -5.3263    0.1497    3.8679 C.ar      1 <0>         0.0964
     26 C24        -4.0201   -0.0490    3.4646 C.ar      1 <0>        -0.1352
     27 F1         -5.8298   -0.5643    4.8984 F         1 <0>        -0.1403
     28 C25         1.9647   -2.2126   -2.5719 C.3       1 <0>        -0.1543
     29 C26         0.2786   -2.9826   -0.8946 C.3       1 <0>        -0.1599
     30 H1          1.0256    1.7891   -0.0502 H         1 <0>         0.0611
     31 H2         -0.5354    1.8207   -0.9050 H         1 <0>         0.0638
     32 H3         -0.4949    1.8253    0.8745 H         1 <0>         0.0650
     33 H4         -1.0774   -0.4299   -0.0053 H         1 <0>         0.0868
     34 H5         -0.2129   -0.5850   -2.1061 H         1 <0>         0.0770
     35 H6          1.2969    0.2328   -1.6678 H         1 <0>         0.0715
     36 H7          3.2137   -1.9960   -0.3509 H         1 <0>         0.4032
     37 H8          2.9872   -1.2478    4.2519 H         1 <0>         0.1307
     38 H9          3.6816   -1.9652    1.9985 H         1 <0>         0.1278
     39 H10         2.5605   -0.1752    5.8268 H         1 <0>         0.1297
     40 H11         1.7440    0.5422    8.0304 H         1 <0>         0.1289
     41 H12        -0.6504    0.9792    8.3825 H         1 <0>         0.1326
     42 H13        -2.2529    0.6752    6.5450 H         1 <0>         0.1337
     43 H14        -1.8133    0.7512    0.9623 H         1 <0>         0.1641
     44 H15        -3.9176    2.2046    0.9231 H         1 <0>         0.1302
     45 H16        -6.2420    2.5325    1.6527 H         1 <0>         0.1335
     46 H17        -7.1445    1.2255    3.5306 H         1 <0>         0.1336
     47 H18        -3.4011   -0.7744    3.9715 H         1 <0>         0.1488
     48 H19         2.7001   -1.4423   -2.8041 H         1 <0>         0.0628
     49 H20         2.4635   -3.1783   -2.4903 H         1 <0>         0.0638
     50 H21         1.2194   -2.2546   -3.3661 H         1 <0>         0.0740
     51 H22        -0.4839   -3.0413   -1.6713 H         1 <0>         0.0668
     52 H23         0.8011   -3.9367   -0.8255 H         1 <0>         0.0598
     53 H24        -0.1934   -2.7567    0.0616 H         1 <0>         0.0609
@<TRIPOS>BOND
     1    1    2 1
     2    1   30 1
     3    1   31 1
     4    1   32 1
     5    2    7 1
     6    2    3 1
     7    2   33 1
     8    3    4 1
     9    3   34 1
    10    3   35 1
    11    4    5 1
    12    4   28 1
    13    4   29 1
    14    5    6 1
    15    5   36 1
    16    6   11 ar
    17    6    7 ar
    18    7    8 ar
    19    8   19 1
    20    8    9 ar
    21    9   10 ar
    22    9   12 1
    23   10   11 ar
    24   10   37 1
    25   11   38 1
    26   12   17 ar
    27   12   13 ar
    28   13   14 ar
    29   13   39 1
    30   14   15 ar
    31   14   40 1
    32   15   16 ar
    33   15   41 1
    34   16   17 ar
    35   16   42 1
    36   17   18 1
    37   18   19 1
    38   19   20 2
    39   20   21 1
    40   20   43 1
    41   21   26 ar
    42   21   22 ar
    43   22   23 ar
    44   22   44 1
    45   23   24 ar
    46   23   45 1
    47   24   25 ar
    48   24   46 1
    49   25   26 ar
    50   25   27 1
    51   26   47 1
    52   28   48 1
    53   28   49 1
    54   28   50 1
    55   29   51 1
    56   29   52 1
    57   29   53 1
@<TRIPOS>MOLECULE
CHEMBL115903
   43    46     0     0     0
SMALL
USER_CHARGES

@<TRIPOS>ATOM
      1 C1         -0.0187    1.5258    0.0104 C.3       1 <0>        -0.1302
      2 C2          0.0021   -0.0041    0.0020 C.3       1 <0>        -0.0429
      3 C3         -1.4021   -0.5535    0.1090 C.ar      1 <0>        -0.1309
      4 C4         -2.5128   -0.4375   -0.6922 C.ar      1 <0>        -0.0467
      5 C5         -3.7005   -1.0719   -0.3275 C.ar      1 <0>        -0.0693
      6 C6         -3.7486   -1.8187    0.8487 C.ar      1 <0>        -0.0692
      7 C7         -2.6316   -1.9299    1.6458 C.ar      1 <0>        -0.1349
      8 C8         -1.4426   -1.2965    1.2834 C.ar      1 <0>         0.1529
      9 N1         -0.2008   -1.2631    1.9175 N.am      1 <0>        -0.6621
     10 C9          0.6986   -0.5319    1.2381 C.2       1 <0>         0.5320
     11 O1          1.8522   -0.3326    1.5553 O.2       1 <0>        -0.4766
     12 C10        -4.9047   -0.9522   -1.1856 C.ar      1 <0>        -0.0240
     13 C11        -4.8529   -0.2094   -2.3639 C.ar      1 <0>        -0.1096
     14 C12        -5.9755   -0.1013   -3.1590 C.ar      1 <0>        -0.1007
     15 C13        -7.1516   -0.7285   -2.7890 C.ar      1 <0>        -0.1117
     16 C14        -7.2095   -1.4676   -1.6200 C.ar      1 <0>        -0.0296
     17 C15        -6.0899   -1.5866   -0.8195 C.ar      1 <0>        -0.1060
     18 Cl1        -8.6894   -2.2513   -1.1624 Cl        1 <0>        -0.0663
     19 C16         0.6888   -0.5226   -1.2630 C.3       1 <0>        -0.0536
     20 C17         2.1009    0.0010   -1.3186 C.ar      1 <0>        -0.0905
     21 C18         2.3670    1.2065   -1.9405 C.ar      1 <0>        -0.1109
     22 C19         3.6622    1.6868   -1.9915 C.ar      1 <0>        -0.1248
     23 C20         4.6912    0.9618   -1.4203 C.ar      1 <0>        -0.1180
     24 C21         4.4250   -0.2434   -0.7977 C.ar      1 <0>        -0.1185
     25 C22         3.1291   -0.7216   -0.7429 C.ar      1 <0>        -0.0825
     26 H1          1.0039    1.9031    0.0027 H         1 <0>         0.0771
     27 H2         -0.5459    1.8868   -0.8726 H         1 <0>         0.0733
     28 H3         -0.5289    1.8773    0.9072 H         1 <0>         0.0609
     29 H4         -2.4663    0.1435   -1.6015 H         1 <0>         0.1334
     30 H5         -4.6657   -2.3116    1.1359 H         1 <0>         0.1357
     31 H6         -2.6761   -2.5098    2.5559 H         1 <0>         0.1318
     32 H7         -0.0086   -1.7155    2.7537 H         1 <0>         0.4142
     33 H8         -3.9355    0.2812   -2.6540 H         1 <0>         0.1323
     34 H9         -5.9360    0.4744   -4.0719 H         1 <0>         0.1357
     35 H10        -8.0279   -0.6410   -3.4142 H         1 <0>         0.1348
     36 H11        -6.1343   -2.1670    0.0902 H         1 <0>         0.1364
     37 H12         0.7058   -1.6124   -1.2466 H         1 <0>         0.0769
     38 H13         0.1398   -0.1810   -2.1405 H         1 <0>         0.0897
     39 H14         1.5630    1.7730   -2.3867 H         1 <0>         0.1204
     40 H15         3.8702    2.6284   -2.4779 H         1 <0>         0.1206
     41 H16         5.7033    1.3366   -1.4608 H         1 <0>         0.1195
     42 H17         5.2290   -0.8100   -0.3517 H         1 <0>         0.1191
     43 H18         2.9206   -1.6613   -0.2532 H         1 <0>         0.1128
@<TRIPOS>BOND
     1    1    2 1
     2    1   26 1
     3    1   27 1
     4    1   28 1
     5    2   10 1
     6    2    3 1
     7    2   19 1
     8    3    8 ar
     9    3    4 ar
    10    4    5 ar
    11    4   29 1
    12    5    6 ar
    13    5   12 1
    14    6    7 ar
    15    6   30 1
    16    7    8 ar
    17    7   31 1
    18    8    9 1
    19    9   10 am
    20    9   32 1
    21   10   11 2
    22   12   17 ar
    23   12   13 ar
    24   13   14 ar
    25   13   33 1
    26   14   15 ar
    27   14   34 1
    28   15   16 ar
    29   15   35 1
    30   16   17 ar
    31   16   18 1
    32   17   36 1
    33   19   20 1
    34   19   37 1
    35   19   38 1
    36   20   25 ar
    37   20   21 ar
    38   21   22 ar
    39   21   39 1
    40   22   23 ar
    41   22   40 1
    42   23   24 ar
    43   23   41 1
    44   24   25 ar
    45   24   42 1
    46   25   43 1
@<TRIPOS>MOLECULE
CHEMBL115903__1
   43    46     0     0     0
SMALL
USER_CHARGES

@<TRIPOS>ATOM
      1 C1         -0.0187    1.5258    0.0104 C.3       1 <0>        -0.1301
      2 C2          0.0021   -0.0041    0.0020 C.3       1 <0>        -0.0429
      3 C3          0.7878   -0.5166   -1.1833 C.ar      1 <0>        -0.1308
      4 C4          0.6198   -0.3855   -2.5411 C.ar      1 <0>        -0.0467
      5 C5          1.5281   -0.9853   -3.4136 C.ar      1 <0>        -0.0693
      6 C6          2.5994   -1.7134   -2.8980 C.ar      1 <0>        -0.0692
      7 C7          2.7606   -1.8400   -1.5366 C.ar      1 <0>        -0.1349
      8 C8          1.8537   -1.2411   -0.6618 C.ar      1 <0>         0.1529
      9 N1          1.8079   -1.2293    0.7321 N.am      1 <0>        -0.6621
     10 C9          0.7606   -0.5309    1.2015 C.2       1 <0>         0.5319
     11 O1          0.4764   -0.3552    2.3675 O.2       1 <0>        -0.4766
     12 C10         1.3548   -0.8498   -4.8807 C.ar      1 <0>        -0.0240
     13 C11         0.2860   -0.1170   -5.3940 C.ar      1 <0>        -0.1096
     14 C12         0.1293    0.0066   -6.7594 C.ar      1 <0>        -0.1007
     15 C13         1.0306   -0.5951   -7.6192 C.ar      1 <0>        -0.1117
     16 C14         2.0941   -1.3241   -7.1156 C.ar      1 <0>        -0.0297
     17 C15         2.2632   -1.4497   -5.7502 C.ar      1 <0>        -0.1060
     18 Cl1         3.2204   -2.0766   -8.2013 Cl        1 <0>        -0.0663
     19 C16        -1.4240   -0.5581   -0.0162 C.3       1 <0>        -0.0536
     20 C17        -2.1678   -0.0708    1.2004 C.ar      1 <0>        -0.0906
     21 C18        -2.1380   -0.8073    2.3698 C.ar      1 <0>        -0.0823
     22 C19        -2.8204   -0.3603    3.4858 C.ar      1 <0>        -0.1184
     23 C20        -3.5321    0.8235    3.4325 C.ar      1 <0>        -0.1180
     24 C21        -3.5612    1.5605    2.2634 C.ar      1 <0>        -0.1249
     25 C22        -2.8753    1.1157    1.1487 C.ar      1 <0>        -0.1109
     26 H1          1.0039    1.9031    0.0027 H         1 <0>         0.0609
     27 H2         -0.5459    1.8868   -0.8726 H         1 <0>         0.0733
     28 H3         -0.5289    1.8773    0.9072 H         1 <0>         0.0770
     29 H4         -0.2134    0.1801   -2.9315 H         1 <0>         0.1334
     30 H5          3.3053   -2.1801   -3.5690 H         1 <0>         0.1357
     31 H6          3.5927   -2.4057   -1.1440 H         1 <0>         0.1318
     32 H7          2.4576   -1.6749    1.2980 H         1 <0>         0.4142
     33 H8         -0.4187    0.3530   -4.7240 H         1 <0>         0.1324
     34 H9         -0.6989    0.5740   -7.1577 H         1 <0>         0.1357
     35 H10         0.9039   -0.4960   -8.6871 H         1 <0>         0.1348
     36 H11         3.0956   -2.0149   -5.3578 H         1 <0>         0.1364
     37 H12        -1.9352   -0.2159   -0.9160 H         1 <0>         0.0897
     38 H13        -1.3906   -1.6476   -0.0094 H         1 <0>         0.0769
     39 H14        -1.5819   -1.7322    2.4114 H         1 <0>         0.1128
     40 H15        -2.7977   -0.9361    4.3992 H         1 <0>         0.1191
     41 H16        -4.0658    1.1724    4.3042 H         1 <0>         0.1195
     42 H17        -4.1176    2.4853    2.2217 H         1 <0>         0.1206
     43 H18        -2.8950    1.6934    0.2364 H         1 <0>         0.1203
@<TRIPOS>BOND
     1    1    2 1
     2    1   26 1
     3    1   27 1
     4    1   28 1
     5    2   10 1
     6    2    3 1
     7    2   19 1
     8    3    8 ar
     9    3    4 ar
    10    4    5 ar
    11    4   29 1
    12    5    6 ar
    13    5   12 1
    14    6    7 ar
    15    6   30 1
    16    7    8 ar
    17    7   31 1
    18    8    9 1
    19    9   10 am
    20    9   32 1
    21   10   11 2
    22   12   17 ar
    23   12   13 ar
    24   13   14 ar
    25   13   33 1
    26   14   15 ar
    27   14   34 1
    28   15   16 ar
    29   15   35 1
    30   16   17 ar
    31   16   18 1
    32   17   36 1
    33   19   20 1
    34   19   37 1
    35   19   38 1
    36   20   25 ar
    37   20   21 ar
    38   21   22 ar
    39   21   39 1
    40   22   23 ar
    41   22   40 1
    42   23   24 ar
    43   23   41 1
    44   24   25 ar
    45   24   42 1
    46   25   43 1
@<TRIPOS>MOLECULE
CHEMBL93906
   41    44     0     0     0
SMALL
USER_CHARGES

@<TRIPOS>ATOM
      1 C1         -0.0167    1.3781    0.0096 C.ar      1 <0>        -0.1041
      2 C2          1.1709    2.0855    0.0021 C.ar      1 <0>        -0.1263
      3 C3          2.3773    1.4107   -0.0130 C.ar      1 <0>        -0.0999
      4 C4          2.3960    0.0285   -0.0201 C.ar      1 <0>        -0.1274
      5 C5          1.2084   -0.6789   -0.0117 C.ar      1 <0>        -0.0824
      6 C6          0.0021   -0.0041    0.0020 C.ar      1 <0>        -0.1222
      7 C7          3.7112   -0.7071   -0.0376 C.3       1 <0>         0.1582
      8 N1          4.1518   -0.9524    1.3379 N.pl3     1 <0>        -0.4651
      9 C8          4.9438   -0.1008    2.1045 C.ar      1 <0>         0.0854
     10 C9          5.5233    1.1323    1.8587 C.ar      1 <0>        -0.0803
     11 C10         6.2810    1.7497    2.8505 C.ar      1 <0>        -0.0313
     12 C11         6.4545    1.1259    4.0864 C.ar      1 <0>        -0.0876
     13 C12         5.8769   -0.1019    4.3299 C.ar      1 <0>        -0.0847
     14 C13         5.1204   -0.7209    3.3443 C.ar      1 <0>         0.0837
     15 N2          4.4305   -1.9287    3.2913 N.pl3     1 <0>        -0.5751
     16 C14         3.8556   -2.0367    2.0788 C.2       1 <0>         0.5051
     17 S1          2.8964   -3.3552    1.5567 S.2       1 <0>        -0.5812
     18 C15         6.9044    3.0711    2.5927 C.ar      1 <0>        -0.0379
     19 C16         6.7286    3.6991    1.3610 C.ar      1 <0>        -0.0619
     20 C17         7.3108    4.9281    1.1267 C.ar      1 <0>        -0.1083
     21 C18         8.0678    5.5368    2.1118 C.ar      1 <0>        -0.0529
     22 C19         8.2456    4.9182    3.3359 C.ar      1 <0>        -0.0415
     23 C20         7.6631    3.6914    3.5832 C.ar      1 <0>        -0.0480
     24 N3          9.0574    5.5754    4.3848 N.pl3     1 <0>         0.0308
     25 O1          9.5642    6.6519    4.1710 O.2       1 <0>        -0.1514
     26 O2          9.2135    5.0356    5.4552 O.3       1 <0>        -0.1537
     27 H1         -0.9591    1.9053    0.0259 H         1 <0>         0.1247
     28 H2          1.1563    3.1654    0.0076 H         1 <0>         0.1244
     29 H3          3.3051    1.9634   -0.0196 H         1 <0>         0.1172
     30 H4          1.2231   -1.7588   -0.0176 H         1 <0>         0.1418
     31 H5         -0.9258   -0.5567    0.0082 H         1 <0>         0.1268
     32 H6          3.5884   -1.6586   -0.5549 H         1 <0>         0.1242
     33 H7          4.4573   -0.1052   -0.5563 H         1 <0>         0.1056
     34 H8          5.3886    1.6134    0.9012 H         1 <0>         0.1396
     35 H9          7.0431    1.6060    4.8542 H         1 <0>         0.1464
     36 H10         6.0130   -0.5822    5.2875 H         1 <0>         0.1461
     37 H11         6.1381    3.2247    0.5912 H         1 <0>         0.1447
     38 H12         7.1755    5.4155    0.1725 H         1 <0>         0.1533
     39 H13         8.5220    6.4985    1.9240 H         1 <0>         0.1572
     40 H14         7.7986    3.2114    4.5411 H         1 <0>         0.1581
     41 H15         4.3706   -2.5799    4.0077 H         1 <0>         0.4497
@<TRIPOS>BOND
     1    1    6 ar
     2    1    2 ar
     3    1   27 1
     4    2    3 ar
     5    2   28 1
     6    3    4 ar
     7    3   29 1
     8    4    5 ar
     9    4    7 1
    10    5    6 ar
    11    5   30 1
    12    6   31 1
    13    7    8 1
    14    7   32 1
    15    7   33 1
    16    8   16 1
    17    8    9 1
    18    9   14 ar
    19    9   10 ar
    20   10   11 ar
    21   10   34 1
    22   11   12 ar
    23   11   18 1
    24   12   13 ar
    25   12   35 1
    26   13   14 ar
    27   13   36 1
    28   14   15 1
    29   15   16 1
    30   15   41 1
    31   16   17 2
    32   18   23 ar
    33   18   19 ar
    34   19   20 ar
    35   19   37 1
    36   20   21 ar
    37   20   38 1
    38   21   22 ar
    39   21   39 1
    40   22   23 ar
    41   22   24 1
    42   23   40 1
    43   24   25 2
    44   24   26 1
@<TRIPOS>MOLECULE
CHEMBL361901
   37    40     0     0     0
SMALL
USER_CHARGES

@<TRIPOS>ATOM
      1 C1         -0.0168    1.3907    0.0097 C.ar      1 <0>        -0.0930
      2 C2          1.1657    2.0997    0.0022 C.ar      1 <0>        -0.0994
      3 C3          2.3787    1.4261   -0.0134 C.ar      1 <0>         0.0986
      4 C4          2.4034    0.0286   -0.0211 C.ar      1 <0>         0.0952
      5 C5          1.2171   -0.6843   -0.0139 C.ar      1 <0>        -0.0891
      6 C6          0.0021   -0.0041    0.0020 C.ar      1 <0>        -0.0436
      7 C7         -1.2729   -0.7632    0.0101 C.ar      1 <0>        -0.0047
      8 C8         -2.4873   -0.0845    0.0195 C.ar      1 <0>        -0.0742
      9 C9         -3.6819   -0.8032    0.0271 C.ar      1 <0>         0.0129
     10 C10        -3.6529   -2.1998    0.0252 C.ar      1 <0>        -0.1091
     11 C11        -2.4425   -2.8674    0.0162 C.ar      1 <0>         0.1115
     12 C12        -1.2551   -2.1570    0.0024 C.ar      1 <0>        -0.1209
     13 F1         -2.4188   -4.2182    0.0148 F         1 <0>        -0.1285
     14 C13        -4.9356   -0.1114    0.0373 C.1       1 <0>         0.2482
     15 N1         -5.9302    0.4375    0.0454 N.1       1 <0>        -0.3956
     16 N2          3.7443   -0.3499   -0.0360 N.am      1 <0>        -0.5269
     17 C14         4.4992    0.7647   -0.0372 C.2       1 <0>         0.6841
     18 N3          3.7046    1.8513   -0.0238 N.am      1 <0>        -0.6431
     19 O1          5.7158    0.7867   -0.0480 O.2       1 <0>        -0.5460
     20 C15         4.2467   -1.7260   -0.0477 C.3       1 <0>         0.1316
     21 C16         5.5164   -1.9254    0.7968 C.3       1 <0>        -0.1544
     22 C17         6.0246   -2.8442   -0.3268 C.3       1 <0>        -0.1359
     23 C18         5.1080   -2.0569   -1.2780 C.3       1 <0>        -0.1475
     24 H1         -0.9601    1.9165    0.0260 H         1 <0>         0.1401
     25 H2          1.1479    3.1796    0.0081 H         1 <0>         0.1380
     26 H3          1.2337   -1.7642   -0.0201 H         1 <0>         0.1350
     27 H4         -2.5045    0.9953    0.0213 H         1 <0>         0.1460
     28 H5         -4.5772   -2.7585    0.0310 H         1 <0>         0.1487
     29 H6         -0.3123   -2.6837   -0.0098 H         1 <0>         0.1467
     30 H7          3.4683   -2.4626    0.1512 H         1 <0>         0.1222
     31 H8          6.1067   -1.0173    0.9188 H         1 <0>         0.1104
     32 H9          5.3375   -2.4448    1.7382 H         1 <0>         0.0742
     33 H10         7.0859   -2.7231   -0.5434 H         1 <0>         0.0787
     34 H11         5.7331   -3.8872   -0.2033 H         1 <0>         0.0854
     35 H12         4.5994   -2.6824   -2.0116 H         1 <0>         0.0762
     36 H13         5.5867   -1.1847   -1.7232 H         1 <0>         0.0915
     37 H14         4.0047    2.7737   -0.0223 H         1 <0>         0.4364
@<TRIPOS>BOND
     1    1    6 ar
     2    1    2 ar
     3    1   24 1
     4    2    3 ar
     5    2   25 1
     6    3   18 1
     7    3    4 ar
     8    4    5 ar
     9    4   16 1
    10    5    6 ar
    11    5   26 1
    12    6    7 1
    13    7   12 ar
    14    7    8 ar
    15    8    9 ar
    16    8   27 1
    17    9   10 ar
    18    9   14 1
    19   10   11 ar
    20   10   28 1
    21   11   12 ar
    22   11   13 1
    23   12   29 1
    24   14   15 3
    25   16   17 am
    26   16   20 1
    27   17   18 am
    28   17   19 2
    29   18   37 1
    30   20   23 1
    31   20   21 1
    32   20   30 1
    33   21   22 1
    34   21   31 1
    35   21   32 1
    36   22   23 1
    37   22   33 1
    38   22   34 1
    39   23   35 1
    40   23   36 1
@<TRIPOS>MOLECULE
CHEMBL361901__1
   37    40     0     0     0
SMALL
USER_CHARGES

@<TRIPOS>ATOM
      1 C1         -0.0169    1.3933    0.0097 C.ar      1 <0>        -0.1092
      2 C2          1.1490    2.1022    0.0024 C.ar      1 <0>        -0.0578
      3 C3          2.3758    1.4321   -0.0130 C.ar      1 <0>         0.0679
      4 C4          2.4009    0.0263   -0.0208 C.ar      1 <0>         0.0549
      5 C5          1.2144   -0.6868   -0.0129 C.ar      1 <0>        -0.0871
      6 C6          0.0021   -0.0041    0.0020 C.ar      1 <0>        -0.0370
      7 C7         -1.2735   -0.7614    0.0106 C.ar      1 <0>        -0.0042
      8 C8         -2.4872   -0.0812    0.0206 C.ar      1 <0>        -0.0731
      9 C9         -3.6826   -0.7985    0.0288 C.ar      1 <0>         0.0129
     10 C10        -3.6554   -2.1951    0.0268 C.ar      1 <0>        -0.1095
     11 C11        -2.4457   -2.8643    0.0174 C.ar      1 <0>         0.1107
     12 C12        -1.2575   -2.1554    0.0030 C.ar      1 <0>        -0.1219
     13 F1         -2.4238   -4.2151    0.0164 F         1 <0>        -0.1291
     14 C13        -4.9356   -0.1051    0.0395 C.1       1 <0>         0.2486
     15 N1         -5.9295    0.4449    0.0481 N.1       1 <0>        -0.3956
     16 N2          3.7380   -0.3341   -0.0355 N.pl3     1 <0>        -0.4796
     17 C14         4.4673    0.8184   -0.0363 C.2       1 <0>         0.4615
     18 N3          3.6674    1.8530   -0.0230 N.2       1 <0>        -0.4875
     19 O1          5.8185    0.8820   -0.0484 O.3       1 <0>        -0.4396
     20 C15         4.2700   -1.6990   -0.0479 C.3       1 <0>         0.1089
     21 C16         5.5434   -1.8716    0.7967 C.3       1 <0>        -0.1524
     22 C17         6.0715   -2.7786   -0.3273 C.3       1 <0>        -0.1360
     23 C18         5.1384   -2.0105   -1.2782 C.3       1 <0>        -0.1459
     24 H1         -0.9617    1.9162    0.0261 H         1 <0>         0.1375
     25 H2          1.1240    3.1819    0.0081 H         1 <0>         0.1377
     26 H3          1.2296   -1.7667   -0.0188 H         1 <0>         0.1284
     27 H4         -2.5032    0.9987    0.0224 H         1 <0>         0.1469
     28 H5         -4.5803   -2.7527    0.0331 H         1 <0>         0.1486
     29 H6         -0.3154   -2.6833   -0.0096 H         1 <0>         0.1452
     30 H7          6.2031    0.9050   -0.9353 H         1 <0>         0.4081
     31 H8          3.5075   -2.4523    0.1504 H         1 <0>         0.1234
     32 H9          6.1141   -0.9510    0.9194 H         1 <0>         0.1085
     33 H10         5.3755   -2.3953    1.7378 H         1 <0>         0.0792
     34 H11         7.1301   -2.6345   -0.5435 H         1 <0>         0.0820
     35 H12         5.8025   -3.8277   -0.2045 H         1 <0>         0.0890
     36 H13         4.6436   -2.6464   -2.0123 H         1 <0>         0.0819
     37 H14         5.5983   -1.1280   -1.7228 H         1 <0>         0.0836
@<TRIPOS>BOND
     1    1    6 ar
     2    1    2 ar
     3    1   24 1
     4    2    3 ar
     5    2   25 1
     6    3   18 1
     7    3    4 ar
     8    4    5 ar
     9    4   16 1
    10    5    6 ar
    11    5   26 1
    12    6    7 1
    13    7   12 ar
    14    7    8 ar
    15    8    9 ar
    16    8   27 1
    17    9   10 ar
    18    9   14 1
    19   10   11 ar
    20   10   28 1
    21   11   12 ar
    22   11   13 1
    23   12   29 1
    24   14   15 3
    25   16   17 1
    26   16   20 1
    27   17   18 2
    28   17   19 1
    29   19   30 1
    30   20   23 1
    31   20   21 1
    32   20   31 1
    33   21   22 1
    34   21   32 1
    35   21   33 1
    36   22   23 1
    37   22   34 1
    38   22   35 1
    39   23   36 1
    40   23   37 1
@<TRIPOS>MOLECULE
CHEMBL363137
   65    68     0     0     0
SMALL
USER_CHARGES

@<TRIPOS>ATOM
      1 C1         -0.0645    1.2906    0.4461 C.3       1 <0>        -0.1447
      2 C2          0.0280   -0.1981    0.1053 C.3       1 <0>        -0.0160
      3 C3          0.8837   -0.9095    1.1554 C.3       1 <0>        -0.1677
      4 C4         -1.3757   -0.8068    0.0936 C.3       1 <0>        -0.1303
      5 C5         -2.2107   -0.1845    1.2145 C.3       1 <0>         0.1355
      6 C6         -1.4665   -0.3262    2.5438 C.3       1 <0>        -0.1196
      7 C7         -2.3607    0.1656    3.6837 C.3       1 <0>        -0.0989
      8 C8         -2.5307    1.6826    3.5804 C.3       1 <0>        -0.1206
      9 C9         -3.4249    2.1745    4.7204 C.3       1 <0>        -0.1220
     10 C10        -2.7792    1.8239    6.0625 C.3       1 <0>        -0.1207
     11 C11        -2.6091    0.3069    6.1658 C.3       1 <0>        -0.1192
     12 C12        -1.7150   -0.1849    5.0258 C.3       1 <0>        -0.1145
     13 C13        -3.5382   -0.8921    1.3041 C.2       1 <0>         0.4941
     14 O1         -3.6444   -2.0341    0.9098 O.2       1 <0>        -0.5016
     15 N1         -4.6074   -0.2559    1.8223 N.am      1 <0>        -0.6658
     16 C14        -5.8042   -0.9453    2.0122 C.ar      1 <0>         0.1911
     17 C15        -5.7823   -2.2874    2.3800 C.ar      1 <0>        -0.1296
     18 C16        -6.9606   -2.9738    2.5691 C.ar      1 <0>        -0.0086
     19 C17        -8.1826   -2.3199    2.3910 C.ar      1 <0>        -0.2135
     20 C18        -8.1971   -0.9700    2.0210 C.ar      1 <0>        -0.0797
     21 C19        -7.0201   -0.2884    1.8392 C.ar      1 <0>        -0.1276
     22 C20        -9.6495   -0.5794    1.9160 C.3       1 <0>         0.0914
     23 O2        -10.4130   -1.7454    2.2367 O.3       1 <0>        -0.3145
     24 C21        -9.5808   -2.7631    2.5144 C.2       1 <0>         0.5230
     25 O3         -9.9311   -3.8850    2.8228 O.2       1 <0>        -0.4484
     26 O4         -2.4270    1.2001    0.9348 O.3       1 <0>        -0.5331
     27 C22         0.6588   -0.3642   -1.2532 C.ar      1 <0>        -0.0676
     28 C23        -0.0417   -0.9871   -2.2691 C.ar      1 <0>        -0.1272
     29 C24         0.5369   -1.1395   -3.5152 C.ar      1 <0>        -0.1171
     30 C25         1.8160   -0.6685   -3.7456 C.ar      1 <0>        -0.1258
     31 C26         2.5162   -0.0447   -2.7299 C.ar      1 <0>        -0.1175
     32 C27         1.9359    0.1114   -1.4850 C.ar      1 <0>        -0.1143
     33 H1          0.9373    1.7191    0.4772 H         1 <0>         0.0445
     34 H2         -0.6548    1.8015   -0.3146 H         1 <0>         0.0578
     35 H3         -0.5418    1.4117    1.4185 H         1 <0>         0.0907
     36 H4          0.3809   -0.8692    2.1217 H         1 <0>         0.0814
     37 H5          1.0268   -1.9498    0.8633 H         1 <0>         0.0566
     38 H6          1.8528   -0.4162    1.2292 H         1 <0>         0.0585
     39 H7         -1.8504   -0.6069   -0.8670 H         1 <0>         0.0793
     40 H8         -1.3060   -1.8836    0.2474 H         1 <0>         0.0904
     41 H9         -1.2117   -1.3732    2.7077 H         1 <0>         0.0870
     42 H10        -0.5542    0.2696    2.5147 H         1 <0>         0.1123
     43 H11        -3.3364   -0.3150    3.6134 H         1 <0>         0.0713
     44 H12        -1.5550    2.1633    3.6507 H         1 <0>         0.0630
     45 H13        -2.9907    1.9324    2.6243 H         1 <0>         0.0882
     46 H14        -3.5460    3.2552    4.6467 H         1 <0>         0.0614
     47 H15        -4.4006    1.6938    4.6500 H         1 <0>         0.0557
     48 H16        -1.8035    2.3046    6.1328 H         1 <0>         0.0615
     49 H17        -3.4162    2.1743    6.8746 H         1 <0>         0.0588
     50 H18        -2.1492    0.0572    7.1219 H         1 <0>         0.0613
     51 H19        -3.5849   -0.1737    6.0955 H         1 <0>         0.0590
     52 H20        -1.5939   -1.2656    5.0995 H         1 <0>         0.0600
     53 H21        -0.7393    0.2958    5.0962 H         1 <0>         0.0642
     54 H22        -4.5442    0.6816    2.0631 H         1 <0>         0.4205
     55 H23        -4.8375   -2.7923    2.5172 H         1 <0>         0.1462
     56 H24        -6.9405   -4.0153    2.8542 H         1 <0>         0.1419
     57 H25        -7.0365    0.7543    1.5584 H         1 <0>         0.1401
     58 H26        -9.8732    0.2191    2.6235 H         1 <0>         0.1188
     59 H27        -9.8756   -0.2530    0.9009 H         1 <0>         0.1183
     60 H28        -2.8950    1.3653    0.1049 H         1 <0>         0.3762
     61 H29        -1.0410   -1.3551   -2.0891 H         1 <0>         0.1254
     62 H30        -0.0101   -1.6268   -4.3087 H         1 <0>         0.1202
     63 H31         2.2684   -0.7882   -4.7189 H         1 <0>         0.1200
     64 H32         3.5156    0.3230   -2.9098 H         1 <0>         0.1207
     65 H33         2.4816    0.6021   -0.6926 H         1 <0>         0.1201
@<TRIPOS>BOND
     1    1    2 1
     2    1   33 1
     3    1   34 1
     4    1   35 1
     5    2    3 1
     6    2    4 1
     7    2   27 1
     8    3   36 1
     9    3   37 1
    10    3   38 1
    11    4    5 1
    12    4   39 1
    13    4   40 1
    14    5    6 1
    15    5   13 1
    16    5   26 1
    17    6    7 1
    18    6   41 1
    19    6   42 1
    20    7   12 1
    21    7    8 1
    22    7   43 1
    23    8    9 1
    24    8   44 1
    25    8   45 1
    26    9   10 1
    27    9   46 1
    28    9   47 1
    29   10   11 1
    30   10   48 1
    31   10   49 1
    32   11   12 1
    33   11   50 1
    34   11   51 1
    35   12   52 1
    36   12   53 1
    37   13   14 2
    38   13   15 am
    39   15   16 1
    40   15   54 1
    41   16   21 ar
    42   16   17 ar
    43   17   18 ar
    44   17   55 1
    45   18   19 ar
    46   18   56 1
    47   19   24 1
    48   19   20 ar
    49   20   21 ar
    50   20   22 1
    51   21   57 1
    52   22   23 1
    53   22   58 1
    54   22   59 1
    55   23   24 1
    56   24   25 2
    57   26   60 1
    58   27   32 ar
    59   27   28 ar
    60   28   29 ar
    61   28   61 1
    62   29   30 ar
    63   29   62 1
    64   30   31 ar
    65   30   63 1
    66   31   32 ar
    67   31   64 1
    68   32   65 1
@<TRIPOS>MOLECULE
CHEMBL363137__1
   65    68     0     0     0
SMALL
USER_CHARGES

@<TRIPOS>ATOM
      1 C1         -0.1935   -0.2632    2.2397 C.3       1 <0>        -0.1442
      2 C2         -0.5894   -1.3565    1.2452 C.3       1 <0>        -0.0280
      3 C3         -1.9278   -1.9674    1.6651 C.3       1 <0>        -0.1613
      4 C4         -0.7218   -0.7502   -0.1532 C.3       1 <0>        -0.1356
      5 C5         -1.8985    0.2274   -0.1759 C.3       1 <0>         0.1353
      6 C6         -1.7994    1.1160   -1.4175 C.3       1 <0>        -0.0977
      7 C7         -0.4310    1.7997   -1.4474 C.3       1 <0>        -0.0833
      8 C8         -0.3295    2.7888   -0.2845 C.3       1 <0>        -0.1206
      9 C9          1.0389    3.4725   -0.3145 C.3       1 <0>        -0.1209
     10 C10         1.2056    4.2223   -1.6377 C.3       1 <0>        -0.1215
     11 C11         1.1041    3.2332   -2.8006 C.3       1 <0>        -0.1188
     12 C12        -0.2643    2.5495   -2.7707 C.3       1 <0>        -0.1163
     13 C13        -3.1923   -0.5445   -0.2126 C.2       1 <0>         0.5019
     14 O1         -3.4884   -1.1851   -1.1989 O.2       1 <0>        -0.5001
     15 N1         -4.0203   -0.5229    0.8506 N.am      1 <0>        -0.6745
     16 C14        -5.1605   -1.3249    0.8626 C.ar      1 <0>         0.1894
     17 C15        -5.8571   -1.5600   -0.3192 C.ar      1 <0>        -0.1299
     18 C16        -6.9838   -2.3510   -0.3142 C.ar      1 <0>        -0.0101
     19 C17        -7.4291   -2.9195    0.8821 C.ar      1 <0>        -0.2121
     20 C18        -6.7236   -2.6788    2.0669 C.ar      1 <0>        -0.0811
     21 C19        -5.5978   -1.8943    2.0560 C.ar      1 <0>        -0.1266
     22 C20        -7.4572   -3.4265    3.1513 C.3       1 <0>         0.0917
     23 O2         -8.5691   -4.0724    2.5252 O.3       1 <0>        -0.3145
     24 C21        -8.5692   -3.7904    1.2115 C.2       1 <0>         0.5228
     25 O3         -9.3900   -4.1953    0.4124 O.2       1 <0>        -0.4480
     26 O4         -1.8633    1.0425    0.9973 O.3       1 <0>        -0.5387
     27 C22         0.4694   -2.4288    1.2297 C.ar      1 <0>        -0.0680
     28 C23         1.1464   -2.7147    0.0589 C.ar      1 <0>        -0.1217
     29 C24         2.1177   -3.6982    0.0446 C.ar      1 <0>        -0.1157
     30 C25         2.4122   -4.3956    1.2012 C.ar      1 <0>        -0.1232
     31 C26         1.7358   -4.1091    2.3723 C.ar      1 <0>        -0.1169
     32 C27         0.7676   -3.1226    2.3875 C.ar      1 <0>        -0.1162
     33 H1          0.5203   -0.6666    2.9580 H         1 <0>         0.0590
     34 H2          0.2622    0.5687    1.7027 H         1 <0>         0.0777
     35 H3         -1.0808    0.0871    2.7668 H         1 <0>         0.0575
     36 H4         -2.5785   -1.1843    2.0542 H         1 <0>         0.0580
     37 H5         -2.3998   -2.4365    0.8018 H         1 <0>         0.0620
     38 H6         -1.7585   -2.7167    2.4384 H         1 <0>         0.0686
     39 H7          0.1959   -0.2201   -0.4079 H         1 <0>         0.1004
     40 H8         -0.8956   -1.5449   -0.8788 H         1 <0>         0.0862
     41 H9         -1.9200    0.5051   -2.3121 H         1 <0>         0.0894
     42 H10        -2.5831    1.8729   -1.3861 H         1 <0>         0.0766
     43 H11         0.3528    1.0480   -1.3545 H         1 <0>         0.0760
     44 H12        -1.1134    3.5405   -0.3774 H         1 <0>         0.0566
     45 H13        -0.4482    2.2546    0.6582 H         1 <0>         0.0960
     46 H14         1.1112    4.1771    0.5140 H         1 <0>         0.0587
     47 H15         1.8227    2.7208   -0.2216 H         1 <0>         0.0578
     48 H16         0.4217    4.9740   -1.7306 H         1 <0>         0.0598
     49 H17         2.1804    4.7094   -1.6590 H         1 <0>         0.0579
     50 H18         1.2228    3.7674   -3.7433 H         1 <0>         0.0602
     51 H19         1.8879    2.4815   -2.7077 H         1 <0>         0.0604
     52 H20        -0.3367    1.8449   -3.5991 H         1 <0>         0.0609
     53 H21        -1.0482    3.3012   -2.8635 H         1 <0>         0.0619
     54 H22        -3.8228    0.0507    1.6076 H         1 <0>         0.4134
     55 H23        -5.5127   -1.1201   -1.2434 H         1 <0>         0.1539
     56 H24        -7.5225   -2.5315   -1.2327 H         1 <0>         0.1421
     57 H25        -5.0542   -1.7154    2.9719 H         1 <0>         0.1398
     58 H26        -6.7997   -4.1696    3.6024 H         1 <0>         0.1180
     59 H27        -7.8103   -2.7297    3.9115 H         1 <0>         0.1187
     60 H28        -2.1217    0.5794    1.8059 H         1 <0>         0.3673
     61 H29         0.9163   -2.1698   -0.8448 H         1 <0>         0.1247
     62 H30         2.6461   -3.9221   -0.8703 H         1 <0>         0.1219
     63 H31         3.1705   -5.1645    1.1899 H         1 <0>         0.1211
     64 H32         1.9657   -4.6542    3.2758 H         1 <0>         0.1216
     65 H33         0.2418   -2.8961    3.3033 H         1 <0>         0.1207
@<TRIPOS>BOND
     1    1    2 1
     2    1   33 1
     3    1   34 1
     4    1   35 1
     5    2    3 1
     6    2    4 1
     7    2   27 1
     8    3   36 1
     9    3   37 1
    10    3   38 1
    11    4    5 1
    12    4   39 1
    13    4   40 1
    14    5    6 1
    15    5   13 1
    16    5   26 1
    17    6    7 1
    18    6   41 1
    19    6   42 1
    20    7   12 1
    21    7    8 1
    22    7   43 1
    23    8    9 1
    24    8   44 1
    25    8   45 1
    26    9   10 1
    27    9   46 1
    28    9   47 1
    29   10   11 1
    30   10   48 1
    31   10   49 1
    32   11   12 1
    33   11   50 1
    34   11   51 1
    35   12   52 1
    36   12   53 1
    37   13   14 2
    38   13   15 am
    39   15   16 1
    40   15   54 1
    41   16   21 ar
    42   16   17 ar
    43   17   18 ar
    44   17   55 1
    45   18   19 ar
    46   18   56 1
    47   19   24 1
    48   19   20 ar
    49   20   21 ar
    50   20   22 1
    51   21   57 1
    52   22   23 1
    53   22   58 1
    54   22   59 1
    55   23   24 1
    56   24   25 2
    57   26   60 1
    58   27   32 ar
    59   27   28 ar
    60   28   29 ar
    61   28   61 1
    62   29   30 ar
    63   29   62 1
    64   30   31 ar
    65   30   63 1
    66   31   32 ar
    67   31   64 1
    68   32   65 1
@<TRIPOS>MOLECULE
CHEMBL567027
   58    62     0     0     0
SMALL
USER_CHARGES

@<TRIPOS>ATOM
      1 C1          1.1251    2.0826   -0.7668 C.3       1 <0>        -0.1862
      2 C2          0.6092    0.7635   -0.1884 C.3       1 <0>        -0.0358
      3 C3         -0.8917    0.9233    0.0992 C.3       1 <0>         0.0179
      4 N1         -1.3354    0.7555    1.4891 N.pl3     1 <0>        -0.3957
      5 C4         -2.5476    0.8627    2.0732 C.cat     1 <0>         0.2817
      6 N2         -2.4352    0.6321    3.3521 N.pl3     1 <0>        -0.4635
      7 C5         -1.1510    0.3623    3.6509 C.2       1 <0>         0.0867
      8 C6         -0.4282    0.4310    2.4684 C.2       1 <0>         0.1096
      9 C7          0.9908    0.2190    2.1796 C.2       1 <0>        -0.1383
     10 C8          1.5026    0.3770    0.9707 C.2       1 <0>        -0.0229
     11 C9          2.9668    0.1268    0.7040 C.3       1 <0>        -0.0896
     12 C10         3.0808   -0.8996   -0.4299 C.3       1 <0>        -0.1203
     13 C11         2.2653   -0.4224   -1.6326 C.3       1 <0>        -0.1177
     14 C12         0.7863   -0.3173   -1.2554 C.3       1 <0>        -0.0912
     15 H1          0.4422   -1.2746   -0.8637 H         1 <0>         0.0898
     16 C13        -0.0315    0.0506   -2.4950 C.3       1 <0>         0.1750
     17 C14        -0.0291   -1.1244   -3.4749 C.3       1 <0>        -0.1501
     18 C15        -1.4486    0.3621   -2.0877 C.ar      1 <0>        -0.0978
     19 C16        -2.2692   -0.6455   -1.6159 C.ar      1 <0>        -0.1184
     20 C17        -3.5689   -0.3604   -1.2421 C.ar      1 <0>        -0.1055
     21 C18        -4.0487    0.9335   -1.3402 C.ar      1 <0>        -0.0500
     22 C19        -3.2270    1.9415   -1.8125 C.ar      1 <0>        -0.0912
     23 C20        -1.9256    1.6562   -2.1806 C.ar      1 <0>        -0.1320
     24 Cl1        -5.6813    1.2922   -0.8715 Cl        1 <0>        -0.0445
     25 O1          0.5461    1.1964   -3.1239 O.3       1 <0>        -0.5386
     26 C21        -0.6094    0.0503    4.9935 C.ar      1 <0>        -0.0744
     27 C22         0.5674    0.6578    5.4318 C.ar      1 <0>        -0.0510
     28 C23         1.0678    0.3638    6.6832 C.ar      1 <0>        -0.1473
     29 C24         0.4039   -0.5336    7.5042 C.ar      1 <0>         0.1367
     30 C25        -0.7651   -1.1400    7.0732 C.ar      1 <0>        -0.1472
     31 C26        -1.2773   -0.8476    5.8262 C.ar      1 <0>        -0.0639
     32 F1          0.8982   -0.8186    8.7288 F         1 <0>        -0.1229
     33 H2          1.6272    1.8918   -1.7153 H         1 <0>         0.1167
     34 H3          0.2871    2.7605   -0.9292 H         1 <0>         0.0615
     35 H4          1.8285    2.5353   -0.0680 H         1 <0>         0.0733
     36 H5         -1.1909    1.9186   -0.2294 H         1 <0>         0.1180
     37 H6         -1.4284    0.1984   -0.5128 H         1 <0>         0.1750
     38 H7         -3.4677    1.1024    1.5611 H         1 <0>         0.2513
     39 H8          1.6493   -0.0576    2.9898 H         1 <0>         0.1533
     40 H9          3.4505    1.0574    0.4073 H         1 <0>         0.0948
     41 H10         3.4423   -0.2647    1.6033 H         1 <0>         0.0882
     42 H11         4.1262   -1.0069   -0.7192 H         1 <0>         0.0837
     43 H12         2.6973   -1.8614   -0.0894 H         1 <0>         0.0689
     44 H13         2.6278    0.5552   -1.9503 H         1 <0>         0.0871
     45 H14         2.3800   -1.1323   -2.4518 H         1 <0>         0.0823
     46 H15        -0.3675   -2.0252   -2.9628 H         1 <0>         0.0745
     47 H16        -0.6991   -0.9056   -4.3063 H         1 <0>         0.0733
     48 H17         0.9812   -1.2796   -3.8536 H         1 <0>         0.0825
     49 H18        -1.8947   -1.6556   -1.5396 H         1 <0>         0.1487
     50 H19        -4.2100   -1.1477   -0.8739 H         1 <0>         0.1481
     51 H20        -3.6010    2.9517   -1.8896 H         1 <0>         0.1494
     52 H21        -1.2826    2.4438   -2.5448 H         1 <0>         0.1459
     53 H22         0.1533    2.0361   -2.8486 H         1 <0>         0.3756
     54 H23         1.0859    1.3568    4.7924 H         1 <0>         0.1427
     55 H24         1.9788    0.8336    7.0235 H         1 <0>         0.1519
     56 H25        -1.2786   -1.8393    7.7165 H         1 <0>         0.1507
     57 H26        -2.1911   -1.3171    5.4930 H         1 <0>         0.1372
     58 H27        -3.1655    0.6523    3.9902 H         1 <0>         0.4643
@<TRIPOS>BOND
     1    1    2 1
     2    1   33 1
     3    1   34 1
     4    1   35 1
     5    2   10 1
     6    2   14 1
     7    2    3 1
     8    3    4 1
     9    3   36 1
    10    3   37 1
    11    4    8 1
    12    4    5 1
    13    5    6 2
    14    5   38 1
    15    6    7 1
    16    6   58 1
    17    7    8 2
    18    7   26 1
    19    8    9 1
    20    9   10 2
    21    9   39 1
    22   10   11 1
    23   11   12 1
    24   11   40 1
    25   11   41 1
    26   12   13 1
    27   12   42 1
    28   12   43 1
    29   13   14 1
    30   13   44 1
    31   13   45 1
    32   14   15 1
    33   14   16 1
    34   16   17 1
    35   16   18 1
    36   16   25 1
    37   17   46 1
    38   17   47 1
    39   17   48 1
    40   18   23 ar
    41   18   19 ar
    42   19   20 ar
    43   19   49 1
    44   20   21 ar
    45   20   50 1
    46   21   22 ar
    47   21   24 1
    48   22   23 ar
    49   22   51 1
    50   23   52 1
    51   25   53 1
    52   26   31 ar
    53   26   27 ar
    54   27   28 ar
    55   27   54 1
    56   28   29 ar
    57   28   55 1
    58   29   30 ar
    59   29   32 1
    60   30   31 ar
    61   30   56 1
    62   31   57 1
@<TRIPOS>MOLECULE
CHEMBL567027__1
   57    61     0     0     0
SMALL
USER_CHARGES

@<TRIPOS>ATOM
      1 C1          1.1251    2.0826   -0.7668 C.3       1 <0>        -0.1796
      2 C2          0.6092    0.7635   -0.1884 C.3       1 <0>        -0.0214
      3 C3         -0.8917    0.9233    0.0992 C.3       1 <0>         0.0353
      4 N1         -1.3354    0.7555    1.4891 N.pl3     1 <0>        -0.4409
      5 C4         -2.5476    0.8627    2.0732 C.2       1 <0>         0.1991
      6 N2         -2.4352    0.6321    3.3521 N.2       1 <0>        -0.4714
      7 C5         -1.1510    0.3623    3.6509 C.2       1 <0>         0.0545
      8 C6         -0.4282    0.4310    2.4684 C.2       1 <0>         0.0187
      9 C7          0.9908    0.2190    2.1796 C.2       1 <0>        -0.0883
     10 C8          1.5026    0.3770    0.9707 C.2       1 <0>        -0.0965
     11 C9          2.9668    0.1268    0.7040 C.3       1 <0>        -0.0773
     12 C10         3.0808   -0.8996   -0.4299 C.3       1 <0>        -0.1178
     13 C11         2.2653   -0.4224   -1.6326 C.3       1 <0>        -0.1122
     14 C12         0.7863   -0.3173   -1.2554 C.3       1 <0>        -0.0890
     15 H1          0.4422   -1.2746   -0.8637 H         1 <0>         0.0836
     16 C13        -0.0315    0.0506   -2.4950 C.3       1 <0>         0.1757
     17 C14        -0.0291   -1.1244   -3.4749 C.3       1 <0>        -0.1465
     18 C15        -1.4486    0.3621   -2.0877 C.ar      1 <0>        -0.0880
     19 C16        -2.2692   -0.6455   -1.6159 C.ar      1 <0>        -0.1127
     20 C17        -3.5689   -0.3604   -1.2421 C.ar      1 <0>        -0.1008
     21 C18        -4.0487    0.9335   -1.3402 C.ar      1 <0>        -0.0403
     22 C19        -3.2270    1.9415   -1.8125 C.ar      1 <0>        -0.0941
     23 C20        -1.9256    1.6562   -2.1806 C.ar      1 <0>        -0.1317
     24 Cl1        -5.6813    1.2922   -0.8715 Cl        1 <0>        -0.0542
     25 O1          0.5461    1.1964   -3.1239 O.3       1 <0>        -0.5447
     26 C21        -0.6094    0.0503    4.9935 C.ar      1 <0>        -0.0059
     27 C22         0.4397   -0.8587    5.1309 C.ar      1 <0>        -0.0832
     28 C23         0.9407   -1.1460    6.3836 C.ar      1 <0>        -0.1510
     29 C24         0.4032   -0.5336    7.5045 C.ar      1 <0>         0.0960
     30 C25        -0.6393    0.3698    7.3733 C.ar      1 <0>        -0.1513
     31 C26        -1.1428    0.6688    6.1243 C.ar      1 <0>        -0.0657
     32 F1          0.8970   -0.8186    8.7293 F         1 <0>        -0.1399
     33 H2          1.6272    1.8918   -1.7153 H         1 <0>         0.1051
     34 H3          0.2871    2.7605   -0.9292 H         1 <0>         0.0539
     35 H4          1.8285    2.5353   -0.0680 H         1 <0>         0.0645
     36 H5         -1.1909    1.9186   -0.2294 H         1 <0>         0.0885
     37 H6         -1.4284    0.1984   -0.5128 H         1 <0>         0.1488
     38 H7         -3.4677    1.1024    1.5611 H         1 <0>         0.2001
     39 H8          1.6493   -0.0576    2.9898 H         1 <0>         0.1313
     40 H9          3.4505    1.0574    0.4073 H         1 <0>         0.0796
     41 H10         3.4423   -0.2647    1.6033 H         1 <0>         0.0762
     42 H11         4.1262   -1.0069   -0.7192 H         1 <0>         0.0720
     43 H12         2.6973   -1.8614   -0.0894 H         1 <0>         0.0643
     44 H13         2.6278    0.5552   -1.9503 H         1 <0>         0.0815
     45 H14         2.3800   -1.1323   -2.4518 H         1 <0>         0.0717
     46 H15        -0.3675   -2.0252   -2.9628 H         1 <0>         0.0725
     47 H16        -0.6991   -0.9056   -4.3063 H         1 <0>         0.0685
     48 H17         0.9812   -1.2796   -3.8536 H         1 <0>         0.0773
     49 H18        -1.8947   -1.6556   -1.5396 H         1 <0>         0.1420
     50 H19        -4.2100   -1.1477   -0.8739 H         1 <0>         0.1428
     51 H20        -3.6010    2.9517   -1.8896 H         1 <0>         0.1423
     52 H21        -1.2826    2.4438   -2.5448 H         1 <0>         0.1387
     53 H22         0.1533    2.0361   -2.8486 H         1 <0>         0.3755
     54 H23         0.8588   -1.3371    4.2580 H         1 <0>         0.1330
     55 H24         1.7529   -1.8497    6.4911 H         1 <0>         0.1373
     56 H25        -1.0553    0.8439    8.2499 H         1 <0>         0.1374
     57 H26        -1.9522    1.3766    6.0226 H         1 <0>         0.1368
@<TRIPOS>BOND
     1    1    2 1
     2    1   33 1
     3    1   34 1
     4    1   35 1
     5    2   10 1
     6    2   14 1
     7    2    3 1
     8    3    4 1
     9    3   36 1
    10    3   37 1
    11    4    8 1
    12    4    5 1
    13    5    6 2
    14    5   38 1
    15    6    7 1
    16    7    8 2
    17    7   26 1
    18    8    9 1
    19    9   10 2
    20    9   39 1
    21   10   11 1
    22   11   12 1
    23   11   40 1
    24   11   41 1
    25   12   13 1
    26   12   42 1
    27   12   43 1
    28   13   14 1
    29   13   44 1
    30   13   45 1
    31   14   15 1
    32   14   16 1
    33   16   17 1
    34   16   18 1
    35   16   25 1
    36   17   46 1
    37   17   47 1
    38   17   48 1
    39   18   23 ar
    40   18   19 ar
    41   19   20 ar
    42   19   49 1
    43   20   21 ar
    44   20   50 1
    45   21   22 ar
    46   21   24 1
    47   22   23 ar
    48   22   51 1
    49   23   52 1
    50   25   53 1
    51   26   31 ar
    52   26   27 ar
    53   27   28 ar
    54   27   54 1
    55   28   29 ar
    56   28   55 1
    57   29   30 ar
    58   29   32 1
    59   30   31 ar
    60   30   56 1
    61   31   57 1
@<TRIPOS>MOLECULE
CHEMBL145224
   36    38     0     0     0
SMALL
USER_CHARGES

@<TRIPOS>ATOM
      1 C1         -0.0167    1.3795    0.0096 C.ar      1 <0>        -0.0928
      2 C2          1.1681    2.0942    0.0022 C.ar      1 <0>        -0.1241
      3 C3          2.3774    1.4310   -0.0129 C.ar      1 <0>        -0.0740
      4 C4          2.4041    0.0343   -0.0206 C.ar      1 <0>        -0.0696
      5 C5          1.2039   -0.6807   -0.0130 C.ar      1 <0>        -0.0845
      6 C6          0.0021   -0.0041    0.0020 C.ar      1 <0>        -0.1228
      7 C7          3.6929   -0.6820   -0.0372 C.2       1 <0>         0.2042
      8 N1          4.7791    0.0112   -0.0391 N.2       1 <0>        -0.2883
      9 N2          6.0440   -0.5912   -0.0637 N.pl3     1 <0>        -0.3751
     10 C8          6.1465   -2.0340    0.2027 C.3       1 <0>         0.0539
     11 C9          5.0107   -2.7279   -0.5633 C.3       1 <0>        -0.1361
     12 C10         3.6754   -2.1834   -0.0450 C.3       1 <0>        -0.1306
     13 C11         7.1464    0.1380   -0.3271 C.2       1 <0>         0.3983
     14 S1          8.6841   -0.6140   -0.3533 S.2       1 <0>        -0.5206
     15 C12         7.0279    1.5845   -0.5930 C.ar      1 <0>        -0.0836
     16 C13         6.0700    2.3455    0.0818 C.ar      1 <0>        -0.0402
     17 C14         5.9642    3.6969   -0.1703 C.ar      1 <0>        -0.1130
     18 C15         6.8049    4.3010   -1.0905 C.ar      1 <0>        -0.0012
     19 C16         7.7571    3.5521   -1.7639 C.ar      1 <0>        -0.0436
     20 C17         7.8766    2.1996   -1.5160 C.ar      1 <0>        -0.0325
     21 Cl1         8.8060    4.3179   -2.9159 Cl        1 <0>        -0.0348
     22 Cl2         6.6650    6.0031   -1.4021 Cl        1 <0>        -0.0368
     23 H1         -0.9606    1.9041    0.0260 H         1 <0>         0.1288
     24 H2          1.1460    3.1740    0.0078 H         1 <0>         0.1305
     25 H3          3.3014    1.9901   -0.0191 H         1 <0>         0.1329
     26 H4          1.2171   -1.7606   -0.0192 H         1 <0>         0.1319
     27 H5         -0.9265   -0.5555    0.0082 H         1 <0>         0.1313
     28 H6          7.1097   -2.4071   -0.1456 H         1 <0>         0.1372
     29 H7          6.0407   -2.2214    1.2713 H         1 <0>         0.0959
     30 H8          5.1067   -2.5191   -1.6288 H         1 <0>         0.0797
     31 H9          5.0573   -3.8034   -0.3924 H         1 <0>         0.1053
     32 H10         3.5022   -2.5472    0.9678 H         1 <0>         0.1051
     33 H11         2.8705   -2.5312   -0.6925 H         1 <0>         0.1063
     34 H12         5.4135    1.8760    0.7993 H         1 <0>         0.1518
     35 H13         5.2237    4.2857    0.3507 H         1 <0>         0.1509
     36 H14         8.6218    1.6174   -2.0377 H         1 <0>         0.1605
@<TRIPOS>BOND
     1    1    6 ar
     2    1    2 ar
     3    1   23 1
     4    2    3 ar
     5    2   24 1
     6    3    4 ar
     7    3   25 1
     8    4    5 ar
     9    4    7 1
    10    5    6 ar
    11    5   26 1
    12    6   27 1
    13    7   12 1
    14    7    8 2
    15    8    9 1
    16    9   10 1
    17    9   13 1
    18   10   11 1
    19   10   28 1
    20   10   29 1
    21   11   12 1
    22   11   30 1
    23   11   31 1
    24   12   32 1
    25   12   33 1
    26   13   14 2
    27   13   15 1
    28   15   20 ar
    29   15   16 ar
    30   16   17 ar
    31   16   34 1
    32   17   18 ar
    33   17   35 1
    34   18   19 ar
    35   18   22 1
    36   19   20 ar
    37   19   21 1
    38   20   36 1
@<TRIPOS>MOLECULE
CHEMBL282650
   32    34     0     0     0
SMALL
USER_CHARGES

@<TRIPOS>ATOM
      1 C1         -0.0187    1.5258    0.0104 C.3       1 <0>        -0.1709
      2 C2          0.0021   -0.0041    0.0020 C.3       1 <0>         0.1483
      3 C3          0.7212   -0.4928   -1.2301 C.ar      1 <0>        -0.1396
      4 C4          0.0402   -0.7167   -2.4049 C.ar      1 <0>        -0.0639
      5 C5          0.7308   -1.1666   -3.5298 C.ar      1 <0>        -0.0271
      6 C6          2.1053   -1.3876   -3.4610 C.ar      1 <0>        -0.0762
      7 C7          2.7829   -1.1628   -2.2801 C.ar      1 <0>        -0.1201
      8 C8          2.0935   -0.7157   -1.1628 C.ar      1 <0>         0.1252
      9 N1          2.7557   -0.4827    0.0486 N.pl3     1 <0>        -0.6071
     10 C9          2.0338   -0.3552    1.1812 C.2       1 <0>         0.5021
     11 O1          0.6935   -0.4804    1.1602 O.3       1 <0>        -0.2761
     12 S1          2.8309   -0.0314    2.6614 S.2       1 <0>        -0.4927
     13 C10         0.0023   -1.4106   -4.7998 C.2       1 <0>        -0.1044
     14 C11         0.6702   -1.8625   -5.9264 C.2       1 <0>        -0.0659
     15 C12        -0.1089   -2.0549   -7.0524 C.2       1 <0>        -0.1551
     16 S2         -1.7305   -1.5938   -6.4752 S.3       1 <0>         0.2954
     17 C13        -1.3541   -1.1990   -4.8868 C.2       1 <0>        -0.2254
     18 C14         0.2867   -2.5085   -8.3517 C.1       1 <0>         0.2888
     19 N2          0.6005   -2.8684   -9.3825 N.1       1 <0>        -0.3885
     20 C15        -1.4324   -0.5362    0.0065 C.3       1 <0>        -0.1419
     21 H1          1.0039    1.9031    0.0027 H         1 <0>         0.0615
     22 H2         -0.5459    1.8868   -0.8726 H         1 <0>         0.0866
     23 H3         -0.5289    1.8773    0.9072 H         1 <0>         0.0842
     24 H4         -1.0248   -0.5450   -2.4553 H         1 <0>         0.1407
     25 H5          2.6403   -1.7354   -4.3323 H         1 <0>         0.1401
     26 H6          3.8477   -1.3347   -2.2260 H         1 <0>         0.1418
     27 H7          1.7333   -2.0525   -5.9252 H         1 <0>         0.1540
     28 H8         -2.0234   -0.8557   -4.1117 H         1 <0>         0.1968
     29 H9         -1.9563   -0.1760   -0.8789 H         1 <0>         0.0884
     30 H10        -1.4157   -1.6260    0.0005 H         1 <0>         0.0751
     31 H11        -1.9472   -0.1856    0.9010 H         1 <0>         0.0828
     32 H12         3.7229   -0.4139    0.0733 H         1 <0>         0.4429
@<TRIPOS>BOND
     1    1    2 1
     2    1   21 1
     3    1   22 1
     4    1   23 1
     5    2   11 1
     6    2    3 1
     7    2   20 1
     8    3    8 ar
     9    3    4 ar
    10    4    5 ar
    11    4   24 1
    12    5    6 ar
    13    5   13 1
    14    6    7 ar
    15    6   25 1
    16    7    8 ar
    17    7   26 1
    18    8    9 1
    19    9   10 1
    20    9   32 1
    21   10   11 1
    22   10   12 2
    23   13   17 2
    24   13   14 1
    25   14   15 2
    26   14   27 1
    27   15   16 1
    28   15   18 1
    29   16   17 1
    30   17   28 1
    31   18   19 3
    32   20   29 1
    33   20   30 1
    34   20   31 1
@<TRIPOS>MOLECULE
CHEMBL63788
   42    45     0     0     0
SMALL
USER_CHARGES

@<TRIPOS>ATOM
      1 C1         -0.0189    1.5413    0.0105 C.3       1 <0>        -0.1524
      2 C2          0.0021   -0.0041    0.0020 C.3       1 <0>        -0.0336
      3 C3         -1.4244   -0.4484   -0.0266 C.3       1 <0>        -0.1248
      4 C4         -1.6754   -1.8580    0.6485 C.3       1 <0>         0.1778
      5 N1         -1.1510   -1.6738    2.0008 N.pl3     1 <0>        -0.7484
      6 C5          0.1224   -1.1456    2.2770 C.ar      1 <0>         0.2351
      7 C6          0.7476   -0.4274    1.2532 C.ar      1 <0>        -0.1119
      8 C7          2.0660   -0.1515    1.3700 C.ar      1 <0>        -0.0703
      9 C8          2.6852   -0.3714    2.6148 C.ar      1 <0>        -0.1187
     10 C9          2.0348   -1.0518    3.6350 C.ar      1 <0>        -0.0617
     11 C10         0.7519   -1.4769    3.4359 C.ar      1 <0>        -0.1795
     12 C11         4.1562    0.1810    2.8355 C.ar      1 <0>        -0.0412
     13 C12         4.8448   -0.2818    3.9209 C.ar      1 <0>        -0.1153
     14 C13         6.1801    0.2564    4.0464 C.ar      1 <0>         0.1018
     15 C14         6.6894    1.0979    3.0375 C.ar      1 <0>        -0.1745
     16 C15         5.9307    1.4802    1.9887 C.ar      1 <0>         0.1421
     17 C16         4.6181    1.0307    1.8536 C.ar      1 <0>         0.0585
     18 O1          3.8005    1.4209    0.8335 O.3       1 <0>        -0.2623
     19 C17         2.9431    0.4631    0.3373 C.3       1 <0>         0.0821
     20 F1          6.3763    2.3343    1.0726 F         1 <0>        -0.1174
     21 F2          6.9209   -0.1201    5.1058 F         1 <0>        -0.1219
     22 C18        -3.1625   -2.1728    0.6081 C.3       1 <0>        -0.1464
     23 C19        -0.8625   -2.8903   -0.0969 C.3       1 <0>        -0.1627
     24 H1          1.0037    1.9185    0.0028 H         1 <0>         0.0628
     25 H2         -0.5461    1.9023   -0.8725 H         1 <0>         0.0597
     26 H3         -0.5291    1.8928    0.9073 H         1 <0>         0.0586
     27 H4          0.5600   -0.3470   -0.8358 H         1 <0>         0.0808
     28 H5         -2.0931    0.2671    0.5191 H         1 <0>         0.0686
     29 H6         -1.7674   -0.5001   -1.0219 H         1 <0>         0.0675
     30 H7         -1.6930   -2.0177    2.7477 H         1 <0>         0.3895
     31 H8          2.5615   -1.1546    4.6466 H         1 <0>         0.1373
     32 H9          0.1946   -1.9080    4.2283 H         1 <0>         0.1259
     33 H10         4.4898   -0.9388    4.6647 H         1 <0>         0.1578
     34 H11         7.6508    1.4818    3.1987 H         1 <0>         0.1497
     35 H12         3.4750   -0.4105   -0.1471 H         1 <0>         0.0655
     36 H13         2.3455    0.8830   -0.5259 H         1 <0>         0.1301
     37 H14        -3.5007   -2.1975   -0.4278 H         1 <0>         0.0775
     38 H15        -3.3412   -3.1429    1.0719 H         1 <0>         0.0640
     39 H16        -3.7115   -1.4037    1.1513 H         1 <0>         0.0652
     40 H17         0.1947   -2.6308   -0.0398 H         1 <0>         0.0612
     41 H18        -1.0206   -3.8708    0.3522 H         1 <0>         0.0576
     42 H19        -1.1749   -2.9142   -1.1409 H         1 <0>         0.0664
@<TRIPOS>BOND
     1    1    2 1
     2    1   24 1
     3    1   25 1
     4    1   26 1
     5    2    7 1
     6    2    3 1
     7    2   27 1
     8    3    4 1
     9    3   28 1
    10    3   29 1
    11    4    5 1
    12    4   22 1
    13    4   23 1
    14    5    6 1
    15    5   30 1
    16    6   11 ar
    17    6    7 ar
    18    7    8 ar
    19    8   19 1
    20    8    9 ar
    21    9   10 ar
    22    9   12 1
    23   10   11 ar
    24   10   31 1
    25   11   32 1
    26   12   17 ar
    27   12   13 ar
    28   13   14 ar
    29   13   33 1
    30   14   15 ar
    31   14   21 1
    32   15   16 ar
    33   15   34 1
    34   16   17 ar
    35   16   20 1
    36   17   18 1
    37   18   19 1
    38   19   35 1
    39   19   36 1
    40   22   37 1
    41   22   38 1
    42   22   39 1
    43   23   40 1
    44   23   41 1
    45   23   42 1
@<TRIPOS>MOLECULE
CHEMBL63788__1
   42    45     0     0     0
SMALL
USER_CHARGES

@<TRIPOS>ATOM
      1 C1         -0.0187    1.5258    0.0104 C.3       1 <0>        -0.1675
      2 C2          0.0021   -0.0041    0.0020 C.3       1 <0>        -0.0480
      3 C3          0.5821   -0.4932   -1.3247 C.3       1 <0>        -0.1200
      4 C4          0.7968   -2.0102   -1.2415 C.3       1 <0>         0.1716
      5 N1          1.7943   -2.2651   -0.1937 N.pl3     1 <0>        -0.7366
      6 C5          1.6859   -1.5858    1.0247 C.ar      1 <0>         0.2370
      7 C6          0.8353   -0.4961    1.1561 C.ar      1 <0>        -0.1318
      8 C7          0.7529    0.1602    2.3673 C.ar      1 <0>        -0.0672
      9 C8          1.5052   -0.2840    3.4566 C.ar      1 <0>        -0.1028
     10 C9          2.3634   -1.3675    3.3201 C.ar      1 <0>        -0.0479
     11 C10         2.4517   -2.0150    2.1048 C.ar      1 <0>        -0.1882
     12 C11         1.3323    0.4127    4.7530 C.ar      1 <0>        -0.0365
     13 C12         2.2053    0.2023    5.8127 C.ar      1 <0>        -0.1303
     14 C13         2.0180    0.8870    7.0003 C.ar      1 <0>         0.1112
     15 C14         0.9660    1.7796    7.1309 C.ar      1 <0>        -0.1681
     16 C15         0.0882    1.9882    6.0811 C.ar      1 <0>         0.1140
     17 C16         0.2593    1.3009    4.8896 C.ar      1 <0>         0.0789
     18 O1         -0.6201    1.4545    3.8664 O.3       1 <0>        -0.3032
     19 C17        -0.1342    1.3670    2.5283 C.3       1 <0>         0.0927
     20 F1         -0.9337    2.8612    6.2174 F         1 <0>        -0.1211
     21 F2          2.8624    0.6846    8.0353 F         1 <0>        -0.1288
     22 C18        -0.5202   -2.7011   -0.8823 C.3       1 <0>        -0.1628
     23 C19         1.3095   -2.5355   -2.5839 C.3       1 <0>        -0.1542
     24 H1          0.8718    1.8984    0.5166 H         1 <0>         0.0651
     25 H2         -0.0347    1.8946   -1.0152 H         1 <0>         0.0646
     26 H3         -0.9079    1.8742    0.5358 H         1 <0>         0.0710
     27 H4         -1.0162   -0.3781    0.1084 H         1 <0>         0.0852
     28 H5         -0.1131   -0.2665   -2.1331 H         1 <0>         0.0804
     29 H6          1.5356    0.0010   -1.5109 H         1 <0>         0.0727
     30 H7          2.5171   -2.8942   -0.3442 H         1 <0>         0.4024
     31 H8          2.9567   -1.7008    4.1588 H         1 <0>         0.1302
     32 H9          3.1175   -2.8578    1.9913 H         1 <0>         0.1275
     33 H10         3.0262   -0.4920    5.7100 H         1 <0>         0.1480
     34 H11         0.8300    2.3161    8.0583 H         1 <0>         0.1560
     35 H12         0.4346    2.2663    2.2921 H         1 <0>         0.0798
     36 H13        -0.9781    1.2878    1.8430 H         1 <0>         0.1369
     37 H14        -1.2650   -2.4840   -1.6480 H         1 <0>         0.0669
     38 H15        -0.3617   -3.7780   -0.8246 H         1 <0>         0.0592
     39 H16        -0.8723   -2.3335    0.0816 H         1 <0>         0.0624
     40 H17         2.2549   -2.0505   -2.8267 H         1 <0>         0.0634
     41 H18         1.4601   -3.6131   -2.5189 H         1 <0>         0.0631
     42 H19         0.5786   -2.3172   -3.3626 H         1 <0>         0.0747
@<TRIPOS>BOND
     1    1    2 1
     2    1   24 1
     3    1   25 1
     4    1   26 1
     5    2    7 1
     6    2    3 1
     7    2   27 1
     8    3    4 1
     9    3   28 1
    10    3   29 1
    11    4    5 1
    12    4   22 1
    13    4   23 1
    14    5    6 1
    15    5   30 1
    16    6   11 ar
    17    6    7 ar
    18    7    8 ar
    19    8   19 1
    20    8    9 ar
    21    9   10 ar
    22    9   12 1
    23   10   11 ar
    24   10   31 1
    25   11   32 1
    26   12   17 ar
    27   12   13 ar
    28   13   14 ar
    29   13   33 1
    30   14   15 ar
    31   14   21 1
    32   15   16 ar
    33   15   34 1
    34   16   17 ar
    35   16   20 1
    36   17   18 1
    37   18   19 1
    38   19   35 1
    39   19   36 1
    40   22   37 1
    41   22   38 1
    42   22   39 1
    43   23   40 1
    44   23   41 1
    45   23   42 1
@<TRIPOS>MOLECULE
CHEMBL67860
   36    38     0     0     0
SMALL
USER_CHARGES

@<TRIPOS>ATOM
      1 C1         -0.8460    1.6936    1.7177 C.3       1 <0>        -0.1440
      2 C2         -0.6510    0.1868    1.5375 C.3       1 <0>         0.1666
      3 C3         -1.9422   -0.4375    1.0712 C.ar      1 <0>        -0.1546
      4 C4         -2.8251    0.2668    0.2871 C.ar      1 <0>        -0.0425
      5 C5         -4.0140   -0.3373   -0.1318 C.ar      1 <0>        -0.0428
      6 C6         -4.2991   -1.6513    0.2474 C.ar      1 <0>        -0.0848
      7 C7         -3.4092   -2.3503    1.0348 C.ar      1 <0>        -0.1400
      8 C8         -2.2300   -1.7469    1.4489 C.ar      1 <0>         0.1689
      9 N1         -1.3124   -2.4331    2.2515 N.am      1 <0>        -0.6683
     10 C9         -0.3469   -1.7405    2.8902 C.2       1 <0>         0.6620
     11 O1          0.4707   -2.3335    3.5659 O.2       1 <0>        -0.4994
     12 O2         -0.2787   -0.4012    2.7873 O.3       1 <0>        -0.3303
     13 C10        -4.9679    0.4129   -0.9738 C.2       1 <0>         0.0938
     14 C11        -5.0445    1.7847   -1.0802 C.2       1 <0>        -0.1777
     15 C12        -6.0730    2.0830   -1.9730 C.2       1 <0>        -0.1065
     16 C13        -6.6114    0.8854   -2.4003 C.2       1 <0>         0.0566
     17 N2         -5.9214   -0.1348   -1.7849 N.pl3     1 <0>        -0.4154
     18 C14        -6.1704   -1.5671   -1.9663 C.3       1 <0>         0.0552
     19 C15        -7.6934    0.7315   -3.3256 C.1       1 <0>         0.2758
     20 N3         -8.5518    0.6094   -4.0596 N.1       1 <0>        -0.4023
     21 C16         0.4475   -0.0679    0.5035 C.3       1 <0>        -0.1725
     22 H1          0.0849    2.1413    2.0658 H         1 <0>         0.0793
     23 H2         -1.1296    2.1398    0.7646 H         1 <0>         0.0890
     24 H3         -1.6320    1.8731    2.4512 H         1 <0>         0.0750
     25 H4         -2.6009    1.2823   -0.0041 H         1 <0>         0.1454
     26 H5         -5.2169   -2.1196   -0.0761 H         1 <0>         0.1364
     27 H6         -3.6293   -3.3659    1.3290 H         1 <0>         0.1389
     28 H7         -1.3700   -3.3966    2.3479 H         1 <0>         0.4309
     29 H8         -4.4205    2.4998   -0.5648 H         1 <0>         0.1533
     30 H9         -6.3908    3.0701   -2.2747 H         1 <0>         0.1549
     31 H10        -6.8232   -1.9260   -1.1706 H         1 <0>         0.0862
     32 H11        -6.6487   -1.7334   -2.9315 H         1 <0>         0.0887
     33 H12        -5.2244   -2.1075   -1.9316 H         1 <0>         0.0979
     34 H13         1.3803    0.3796    0.8466 H         1 <0>         0.0804
     35 H14         0.5850   -1.1418    0.3765 H         1 <0>         0.0604
     36 H15         0.1600    0.3768   -0.4492 H         1 <0>         0.0856
@<TRIPOS>BOND
     1    1    2 1
     2    1   22 1
     3    1   23 1
     4    1   24 1
     5    2   12 1
     6    2    3 1
     7    2   21 1
     8    3    8 ar
     9    3    4 ar
    10    4    5 ar
    11    4   25 1
    12    5    6 ar
    13    5   13 1
    14    6    7 ar
    15    6   26 1
    16    7    8 ar
    17    7   27 1
    18    8    9 1
    19    9   10 am
    20    9   28 1
    21   10   11 2
    22   10   12 1
    23   13   17 1
    24   13   14 2
    25   14   15 1
    26   14   29 1
    27   15   16 2
    28   15   30 1
    29   16   17 1
    30   16   19 1
    31   17   18 1
    32   18   31 1
    33   18   32 1
    34   18   33 1
    35   19   20 3
    36   21   34 1
    37   21   35 1
    38   21   36 1
@<TRIPOS>MOLECULE
CHEMBL559580
   45    47     0     0     0
SMALL
USER_CHARGES

@<TRIPOS>ATOM
      1 C1          0.1532    1.4206   -0.1996 C.3       1 <0>        -0.1891
      2 C2         -0.0672   -0.0928   -0.1557 C.3       1 <0>         0.2062
      3 C3          0.4272   -0.6344    1.1609 C.cat     1 <0>         0.2856
      4 N1          1.3586   -1.5360    1.3108 N.pl3     1 <0>        -0.4649
      5 C4          1.5377   -1.7739    2.6186 C.2       1 <0>         0.0059
      6 C5          0.6848   -0.9898    3.3052 C.2       1 <0>         0.0298
      7 N2         -0.0162   -0.2629    2.3811 N.pl3     1 <0>        -0.3972
      8 C6         -1.0554    0.7305    2.6631 C.3       1 <0>         0.0424
      9 N3          0.6702   -0.7257   -1.2520 N.pl3     1 <0>        -0.6138
     10 C7         -0.0399   -1.5516   -2.2317 C.3       1 <0>         0.1517
     11 C8          0.0682   -3.0023   -1.8384 C.ar      1 <0>        -0.1219
     12 C9          1.0312   -3.8061   -2.4194 C.ar      1 <0>        -0.0900
     13 C10         1.1305   -5.1368   -2.0588 C.ar      1 <0>        -0.1044
     14 C11         0.2670   -5.6646   -1.1168 C.ar      1 <0>        -0.0915
     15 C12        -0.6960   -4.8621   -0.5353 C.ar      1 <0>        -0.1074
     16 C13        -0.7923   -3.5285   -0.8917 C.ar      1 <0>        -0.0300
     17 Cl1        -1.9975   -2.5180   -0.1568 Cl        1 <0>        -0.0755
     18 C14         2.0455   -0.5425   -1.3627 C.ar      1 <0>         0.2230
     19 C15         2.7405    0.1231   -0.3565 C.ar      1 <0>        -0.2217
     20 C16         4.1002    0.3065   -0.4618 C.ar      1 <0>        -0.0034
     21 C17         4.7849   -0.1765   -1.5814 C.ar      1 <0>        -0.0493
     22 C18         4.0839   -0.8450   -2.5911 C.ar      1 <0>         0.0562
     23 C19         2.7229   -1.0297   -2.4756 C.ar      1 <0>        -0.1713
     24 Cl2         4.9279   -1.4464   -3.9838 Cl        1 <0>        -0.0243
     25 C20         6.1998    0.0131   -1.6945 C.1       1 <0>         0.2344
     26 N4          7.3222    0.1634   -1.7842 N.1       1 <0>        -0.3778
     27 H1          1.1481    1.6540    0.1796 H         1 <0>         0.0845
     28 H2          0.0650    1.7709   -1.2280 H         1 <0>         0.1058
     29 H3         -0.5964    1.9151    0.4182 H         1 <0>         0.0878
     30 H4         -1.1305   -0.3083   -0.2610 H         1 <0>         0.1460
     31 H5          2.2423   -2.4718    3.0461 H         1 <0>         0.2250
     32 H6          0.5774   -0.9410    4.3787 H         1 <0>         0.2273
     33 H7         -2.0361    0.2596    2.5955 H         1 <0>         0.1115
     34 H8         -0.9128    1.1304    3.6670 H         1 <0>         0.1252
     35 H9         -0.9904    1.5405    1.9367 H         1 <0>         0.1165
     36 H10        -1.0899   -1.2601   -2.2597 H         1 <0>         0.1074
     37 H11         0.4033   -1.4083   -3.2171 H         1 <0>         0.1093
     38 H12         1.7057   -3.3945   -3.1555 H         1 <0>         0.1382
     39 H13         1.8828   -5.7645   -2.5132 H         1 <0>         0.1391
     40 H14         0.3449   -6.7045   -0.8357 H         1 <0>         0.1403
     41 H15        -1.3707   -5.2746    0.2003 H         1 <0>         0.1381
     42 H16         2.2116    0.4963    0.5080 H         1 <0>         0.1338
     43 H17         4.6381    0.8233    0.3193 H         1 <0>         0.1497
     44 H18         2.1812   -1.5494   -3.2521 H         1 <0>         0.1531
     45 H19         1.8448   -1.9664    0.5901 H         1 <0>         0.4596
@<TRIPOS>BOND
     1    1    2 1
     2    1   27 1
     3    1   28 1
     4    1   29 1
     5    2    3 1
     6    2    9 1
     7    2   30 1
     8    3    7 1
     9    3    4 2
    10    4    5 1
    11    4   45 1
    12    5    6 2
    13    5   31 1
    14    6    7 1
    15    6   32 1
    16    7    8 1
    17    8   33 1
    18    8   34 1
    19    8   35 1
    20    9   10 1
    21    9   18 1
    22   10   11 1
    23   10   36 1
    24   10   37 1
    25   11   16 ar
    26   11   12 ar
    27   12   13 ar
    28   12   38 1
    29   13   14 ar
    30   13   39 1
    31   14   15 ar
    32   14   40 1
    33   15   16 ar
    34   15   41 1
    35   16   17 1
    36   18   23 ar
    37   18   19 ar
    38   19   20 ar
    39   19   42 1
    40   20   21 ar
    41   20   43 1
    42   21   22 ar
    43   21   25 1
    44   22   23 ar
    45   22   24 1
    46   23   44 1
    47   25   26 3
@<TRIPOS>MOLECULE
CHEMBL559580__1
   45    47     0     0     0
SMALL
USER_CHARGES

@<TRIPOS>ATOM
      1 C1          0.3204    1.2915   -0.1090 C.3       1 <0>        -0.1905
      2 C2          0.1366   -0.2155    0.0810 C.3       1 <0>         0.2027
      3 C3          0.7704   -0.6388    1.3811 C.cat     1 <0>         0.2825
      4 N1          0.1731   -1.2889    2.3422 N.pl3     1 <0>        -0.4667
      5 C4          1.0417   -1.4950    3.3432 C.2       1 <0>         0.0087
      6 C5          2.2221   -0.9521    2.9889 C.2       1 <0>         0.0288
      7 N2          2.0520   -0.4135    1.7421 N.pl3     1 <0>        -0.3984
      8 C6          3.0694    0.2803    0.9486 C.3       1 <0>         0.0475
      9 N3         -1.2932   -0.5334    0.1084 N.pl3     1 <0>        -0.6128
     10 C7         -1.8686   -1.4092   -0.9154 C.3       1 <0>         0.1550
     11 C8         -2.4103   -0.5724   -2.0456 C.ar      1 <0>        -0.1150
     12 C9         -3.7583   -0.2705   -2.0977 C.ar      1 <0>        -0.0907
     13 C10        -4.2554    0.4970   -3.1342 C.ar      1 <0>        -0.1059
     14 C11        -3.4048    0.9633   -4.1194 C.ar      1 <0>        -0.0910
     15 C12        -2.0570    0.6622   -4.0684 C.ar      1 <0>        -0.1051
     16 C13        -1.5579   -0.1014   -3.0279 C.ar      1 <0>        -0.0208
     17 Cl1         0.1362   -0.4746   -2.9595 Cl        1 <0>        -0.0741
     18 C14        -2.1050   -0.0035    1.1072 C.ar      1 <0>         0.2212
     19 C15        -3.4746   -0.2535    1.0943 C.ar      1 <0>        -0.1748
     20 C16        -4.2809    0.2684    2.0796 C.ar      1 <0>        -0.0016
     21 C17        -3.7236    1.0513    3.0956 C.ar      1 <0>        -0.0487
     22 C18        -2.3468    1.3009    3.1060 C.ar      1 <0>         0.0536
     23 C19        -1.5450    0.7699    2.1187 C.ar      1 <0>        -0.2185
     24 Cl2        -1.6489    2.2724    4.3641 Cl        1 <0>        -0.0316
     25 C20        -4.5598    1.5964    4.1223 C.1       1 <0>         0.2343
     26 N4         -5.2231    2.0289    4.9369 N.1       1 <0>        -0.3776
     27 H1          1.3784    1.5414   -0.0292 H         1 <0>         0.0818
     28 H2         -0.0482    1.5812   -1.0930 H         1 <0>         0.1009
     29 H3         -0.2380    1.8254    0.6598 H         1 <0>         0.0882
     30 H4          0.6111   -0.7463   -0.7443 H         1 <0>         0.1479
     31 H5          0.8314   -2.0067    4.2708 H         1 <0>         0.2267
     32 H6          3.1297   -0.9464    3.5743 H         1 <0>         0.2280
     33 H7          3.0448    1.3457    1.1778 H         1 <0>         0.1158
     34 H8          4.0540   -0.1205    1.1897 H         1 <0>         0.1246
     35 H9          2.8666    0.1321   -0.1120 H         1 <0>         0.1124
     36 H10        -1.0972   -2.0785   -1.2963 H         1 <0>         0.1030
     37 H11        -2.6762   -1.9968   -0.4788 H         1 <0>         0.1069
     38 H12        -4.4233   -0.6347   -1.3286 H         1 <0>         0.1355
     39 H13        -5.3086    0.7323   -3.1747 H         1 <0>         0.1368
     40 H14        -3.7937    1.5627   -4.9292 H         1 <0>         0.1392
     41 H15        -1.3927    1.0262   -4.8382 H         1 <0>         0.1391
     42 H16        -3.9049   -0.8578    0.3094 H         1 <0>         0.1504
     43 H17        -5.3432    0.0740    2.0682 H         1 <0>         0.1546
     44 H18        -0.4816    0.9581    2.1279 H         1 <0>         0.1374
     45 H19        -0.7529   -1.5774    2.3340 H         1 <0>         0.4605
@<TRIPOS>BOND
     1    1    2 1
     2    1   27 1
     3    1   28 1
     4    1   29 1
     5    2    3 1
     6    2    9 1
     7    2   30 1
     8    3    7 1
     9    3    4 2
    10    4    5 1
    11    4   45 1
    12    5    6 2
    13    5   31 1
    14    6    7 1
    15    6   32 1
    16    7    8 1
    17    8   33 1
    18    8   34 1
    19    8   35 1
    20    9   10 1
    21    9   18 1
    22   10   11 1
    23   10   36 1
    24   10   37 1
    25   11   16 ar
    26   11   12 ar
    27   12   13 ar
    28   12   38 1
    29   13   14 ar
    30   13   39 1
    31   14   15 ar
    32   14   40 1
    33   15   16 ar
    34   15   41 1
    35   16   17 1
    36   18   23 ar
    37   18   19 ar
    38   19   20 ar
    39   19   42 1
    40   20   21 ar
    41   20   43 1
    42   21   22 ar
    43   21   25 1
    44   22   23 ar
    45   22   24 1
    46   23   44 1
    47   25   26 3
@<TRIPOS>MOLECULE
CHEMBL1083754
   46    49     0     0     0
SMALL
USER_CHARGES

@<TRIPOS>ATOM
      1 C1         -0.0178    1.4608    0.0101 C.3       1 <0>         0.0870
      2 N1          0.0021   -0.0041    0.0020 N.am      1 <0>        -0.7324
      3 C2          0.6044   -0.6754    1.0035 C.2       1 <0>         0.4919
      4 O1          1.1299   -0.0668    1.9115 O.2       1 <0>        -0.5102
      5 C3          0.6248   -2.1822    0.9953 C.3       1 <0>         0.0881
      6 N2          1.3334   -2.6675    2.1821 N.pl3     1 <0>        -0.4212
      7 C4          2.6540   -3.0001    2.2379 C.2       1 <0>         0.0097
      8 C5          2.9377   -3.4010    3.4939 C.2       1 <0>        -0.1219
      9 C6          1.7466   -3.3136    4.2462 C.2       1 <0>         0.0030
     10 C7          0.7802   -2.8562    3.4191 C.2       1 <0>         0.0812
     11 C8         -0.6571   -2.6012    3.7937 C.3       1 <0>        -0.1035
     12 C9         -1.1201   -3.0663    5.1758 C.3       1 <0>        -0.1652
     13 C10        -0.9286   -1.5745    4.8951 C.3       1 <0>        -0.1663
     14 O2          1.5994   -3.6274    5.5632 O.3       1 <0>        -0.2178
     15 C11         1.8017   -2.6460    6.4785 C.ar      1 <0>         0.1536
     16 C12         2.1425   -1.3656    6.0580 C.ar      1 <0>        -0.1904
     17 C13         2.3483   -0.3668    6.9835 C.ar      1 <0>        -0.0313
     18 C14         2.2140   -0.6419    8.3473 C.ar      1 <0>        -0.0705
     19 C15         1.8712   -1.9307    8.7658 C.ar      1 <0>        -0.0318
     20 C16         1.6620   -2.9225    7.8336 C.ar      1 <0>        -0.1528
     21 C17         2.4275    0.3936    9.3130 C.1       1 <0>         0.2572
     22 N3          2.5968    1.2151   10.0792 N.1       1 <0>        -0.4229
     23 C18         4.2808   -3.8590    4.0014 C.3       1 <0>        -0.0784
     24 C19         5.4836   -3.6861    3.0718 C.3       1 <0>        -0.1768
     25 C20         4.9105   -5.0810    3.3297 C.3       1 <0>        -0.1700
     26 H1          1.0048    1.8381    0.0023 H         1 <0>         0.0621
     27 H2         -0.5450    1.8219   -0.8730 H         1 <0>         0.0793
     28 H3         -0.5280    1.8123    0.9069 H         1 <0>         0.0623
     29 H4         -0.4183   -0.4908   -0.7241 H         1 <0>         0.4039
     30 H5         -0.3978   -2.5595    1.0030 H         1 <0>         0.1209
     31 H6          1.1350   -2.5337    0.0985 H         1 <0>         0.1252
     32 H7          3.3536   -2.9512    1.4166 H         1 <0>         0.1682
     33 H8         -1.3742   -2.6627    2.9752 H         1 <0>         0.1081
     34 H9         -2.1421   -3.4341    5.2667 H         1 <0>         0.0998
     35 H10        -0.3852   -3.5567    5.8141 H         1 <0>         0.1160
     36 H11        -0.0676   -1.0835    5.3488 H         1 <0>         0.1027
     37 H12        -1.8246   -0.9609    4.8014 H         1 <0>         0.0974
     38 H13         2.2464   -1.1539    5.0040 H         1 <0>         0.1426
     39 H14         2.6134    0.6276    6.6560 H         1 <0>         0.1334
     40 H15         1.7665   -2.1474    9.8187 H         1 <0>         0.1398
     41 H16         1.3931   -3.9176    8.1560 H         1 <0>         0.1426
     42 H17         4.4481   -3.7304    5.0707 H         1 <0>         0.1089
     43 H18         5.3036   -3.2411    2.0932 H         1 <0>         0.0923
     44 H19         6.4427   -3.4435    3.5295 H         1 <0>         0.0964
     45 H20         5.4924   -5.7561    3.9572 H         1 <0>         0.0958
     46 H21         4.3533   -5.5537    2.5209 H         1 <0>         0.0940
@<TRIPOS>BOND
     1    1    2 1
     2    1   26 1
     3    1   27 1
     4    1   28 1
     5    2    3 am
     6    2   29 1
     7    3    4 2
     8    3    5 1
     9    5    6 1
    10    5   30 1
    11    5   31 1
    12    6   10 1
    13    6    7 1
    14    7    8 2
    15    7   32 1
    16    8    9 1
    17    8   23 1
    18    9   10 2
    19    9   14 1
    20   10   11 1
    21   11   13 1
    22   11   12 1
    23   11   33 1
    24   12   13 1
    25   12   34 1
    26   12   35 1
    27   13   36 1
    28   13   37 1
    29   14   15 1
    30   15   20 ar
    31   15   16 ar
    32   16   17 ar
    33   16   38 1
    34   17   18 ar
    35   17   39 1
    36   18   19 ar
    37   18   21 1
    38   19   20 ar
    39   19   40 1
    40   20   41 1
    41   21   22 3
    42   23   25 1
    43   23   24 1
    44   23   42 1
    45   24   25 1
    46   24   43 1
    47   24   44 1
    48   25   45 1
    49   25   46 1
@<TRIPOS>MOLECULE
CHEMBL92730
   39    42     0     0     0
SMALL
USER_CHARGES

@<TRIPOS>ATOM
      1 C1         -0.0184    1.5028    0.0103 C.3       1 <0>        -0.1181
      2 C2          0.0021   -0.0041    0.0020 C.2       1 <0>        -0.0584
      3 C3         -0.0942   -0.6661   -1.1439 C.2       1 <0>        -0.1789
      4 C4         -0.0908   -2.1713   -1.1753 C.3       1 <0>         0.2148
      5 N1          0.6728   -2.6953   -0.0355 N.pl3     1 <0>        -0.7403
      6 C5          0.4769   -2.1131    1.2172 C.ar      1 <0>         0.2255
      7 C6          0.1355   -0.7516    1.2686 C.ar      1 <0>        -0.1009
      8 C7         -0.0715   -0.1408    2.4964 C.ar      1 <0>        -0.0350
      9 C8          0.0708   -0.8740    3.6709 C.ar      1 <0>        -0.1086
     10 C9          0.4218   -2.2261    3.6048 C.ar      1 <0>        -0.0486
     11 C10         0.6144   -2.8381    2.3871 C.ar      1 <0>        -0.1789
     12 C11        -0.2022    0.0044    4.8357 C.ar      1 <0>        -0.0432
     13 C12        -0.1903   -0.2580    6.2072 C.ar      1 <0>        -0.1032
     14 C13        -0.4850    0.7480    7.1034 C.ar      1 <0>        -0.1178
     15 C14        -0.7930    2.0181    6.6494 C.ar      1 <0>        -0.1193
     16 C15        -0.8064    2.2853    5.2920 C.ar      1 <0>        -0.0994
     17 C16        -0.5135    1.2854    4.3889 C.ar      1 <0>        -0.0999
     18 C17        -0.4485    1.2686    2.8815 C.3       1 <0>        -0.0427
     19 C18        -1.5304   -2.6840   -1.1009 C.3       1 <0>        -0.1582
     20 C19         0.5500   -2.6505   -2.4794 C.3       1 <0>        -0.1523
     21 H1          0.8698    1.8754    0.5207 H         1 <0>         0.0690
     22 H2         -0.0296    1.8716   -1.0153 H         1 <0>         0.0654
     23 H3         -0.9100    1.8512    0.5315 H         1 <0>         0.0725
     24 H4         -0.1761   -0.1159   -2.0696 H         1 <0>         0.1226
     25 H5          1.2977   -3.4282   -0.1507 H         1 <0>         0.4030
     26 H6          0.5349   -2.7956    4.5155 H         1 <0>         0.1234
     27 H7          0.8855   -3.8827    2.3464 H         1 <0>         0.1273
     28 H8          0.0499   -1.2480    6.5659 H         1 <0>         0.1211
     29 H9         -0.4757    0.5434    8.1638 H         1 <0>         0.1250
     30 H10        -1.0229    2.8021    7.3557 H         1 <0>         0.1259
     31 H11        -1.0467    3.2775    4.9396 H         1 <0>         0.1236
     32 H12         0.3094    1.9690    2.5306 H         1 <0>         0.1014
     33 H13        -1.4209    1.5252    2.4610 H         1 <0>         0.1002
     34 H14        -2.0961   -2.3034   -1.9514 H         1 <0>         0.0658
     35 H15        -1.5295   -3.7738   -1.1236 H         1 <0>         0.0597
     36 H16        -1.9912   -2.3402   -0.1749 H         1 <0>         0.0568
     37 H17         1.5745   -2.2828   -2.5374 H         1 <0>         0.0631
     38 H18         0.5532   -3.7403   -2.5036 H         1 <0>         0.0632
     39 H19        -0.0211   -2.2700   -3.3262 H         1 <0>         0.0743
@<TRIPOS>BOND
     1    1    2 1
     2    1   21 1
     3    1   22 1
     4    1   23 1
     5    2    7 1
     6    2    3 2
     7    3    4 1
     8    3   24 1
     9    4    5 1
    10    4   19 1
    11    4   20 1
    12    5    6 1
    13    5   25 1
    14    6   11 ar
    15    6    7 ar
    16    7    8 ar
    17    8   18 1
    18    8    9 ar
    19    9   10 ar
    20    9   12 1
    21   10   11 ar
    22   10   26 1
    23   11   27 1
    24   12   17 ar
    25   12   13 ar
    26   13   14 ar
    27   13   28 1
    28   14   15 ar
    29   14   29 1
    30   15   16 ar
    31   15   30 1
    32   16   17 ar
    33   16   31 1
    34   17   18 1
    35   18   32 1
    36   18   33 1
    37   19   34 1
    38   19   35 1
    39   19   36 1
    40   20   37 1
    41   20   38 1
    42   20   39 1
@<TRIPOS>MOLECULE
CHEMBL313220
   44    47     0     0     0
SMALL
USER_CHARGES

@<TRIPOS>ATOM
      1 C1          0.5065    0.2615   -0.9043 C.ar      1 <0>        -0.0824
      2 C2          1.6587    1.0187   -0.8276 C.ar      1 <0>        -0.1402
      3 C3          2.1862    1.3554    0.4079 C.ar      1 <0>         0.1180
      4 C4          1.5598    0.9334    1.5687 C.ar      1 <0>        -0.1365
      5 C5          0.4076    0.1757    1.4964 C.ar      1 <0>        -0.0656
      6 C6         -0.1234   -0.1623    0.2585 C.ar      1 <0>         0.1131
      7 N1         -1.2929   -0.9302    0.1829 N.pl3     1 <0>        -0.2275
      8 C7         -1.4754   -1.9872   -0.6401 C.2       1 <0>         0.0192
      9 C8         -2.7268   -2.4564   -0.4180 C.2       1 <0>        -0.1473
     10 C9         -3.2795   -1.6299    0.5785 C.2       1 <0>        -0.0518
     11 N2         -2.3517   -0.7371    0.8915 N.2       1 <0>        -0.2289
     12 C10        -4.6233   -1.7392    1.1623 C.2       1 <0>         0.4203
     13 O1         -4.9776   -0.9577    2.0195 O.2       1 <0>        -0.4451
     14 C11        -3.3385   -3.6297   -1.1327 C.3       1 <0>        -0.0495
     15 C12        -2.5014   -3.9203   -2.3857 C.3       1 <0>        -0.1211
     16 C13        -1.0196   -3.9883   -2.0063 C.3       1 <0>        -0.1128
     17 C14        -0.5173   -2.5867   -1.6370 C.3       1 <0>        -0.0095
     18 C15         0.8775   -2.6859   -1.0160 C.3       1 <0>        -0.0927
     19 C16         1.8500   -3.2020   -2.0451 C.ar      1 <0>        -0.0593
     20 C17         2.0585   -4.5624   -2.1772 C.ar      1 <0>        -0.0944
     21 C18         2.9498   -5.0380   -3.1203 C.ar      1 <0>        -0.1204
     22 C19         3.6345   -4.1523   -3.9341 C.ar      1 <0>         0.0656
     23 C20         3.4251   -2.7881   -3.8020 C.ar      1 <0>         0.0729
     24 C21         2.5282   -2.3151   -2.8598 C.ar      1 <0>        -0.1246
     25 F1          4.0927   -1.9215   -4.5949 F         1 <0>        -0.1264
     26 F2          4.5063   -4.6164   -4.8559 F         1 <0>        -0.1270
     27 F3          3.3136    2.0963    0.4808 F         1 <0>        -0.1278
     28 H1          0.0929    0.0029   -1.8678 H         1 <0>         0.1443
     29 H2          2.1490    1.3481   -1.7317 H         1 <0>         0.1517
     30 H3          1.9729    1.1967    2.5312 H         1 <0>         0.1513
     31 H4         -0.0802   -0.1539    2.4018 H         1 <0>         0.1469
     32 H5         -5.2957   -2.5155    0.8281 H         1 <0>         0.1274
     33 H6         -3.3349   -4.5012   -0.4781 H         1 <0>         0.0823
     34 H7         -4.3620   -3.3909   -1.4218 H         1 <0>         0.0822
     35 H8         -2.8102   -4.8731   -2.8159 H         1 <0>         0.0762
     36 H9         -2.6532   -3.1258   -3.1163 H         1 <0>         0.0675
     37 H10        -0.8936   -4.6553   -1.1535 H         1 <0>         0.0732
     38 H11        -0.4457   -4.3684   -2.8515 H         1 <0>         0.0792
     39 H12        -0.4787   -1.9631   -2.5302 H         1 <0>         0.0925
     40 H13         1.1957   -1.6998   -0.6778 H         1 <0>         0.0871
     41 H14         0.8497   -3.3696   -0.1675 H         1 <0>         0.0861
     42 H15         1.5245   -5.2540   -1.5424 H         1 <0>         0.1421
     43 H16         3.1123   -6.1009   -3.2220 H         1 <0>         0.1485
     44 H17         2.3614   -1.2529   -2.7585 H         1 <0>         0.1431
@<TRIPOS>BOND
     1    1    6 ar
     2    1    2 ar
     3    1   28 1
     4    2    3 ar
     5    2   29 1
     6    3    4 ar
     7    3   27 1
     8    4    5 ar
     9    4   30 1
    10    5    6 ar
    11    5   31 1
    12    6    7 1
    13    7   11 1
    14    7    8 1
    15    8   17 1
    16    8    9 2
    17    9   10 1
    18    9   14 1
    19   10   11 2
    20   10   12 1
    21   12   13 2
    22   12   32 1
    23   14   15 1
    24   14   33 1
    25   14   34 1
    26   15   16 1
    27   15   35 1
    28   15   36 1
    29   16   17 1
    30   16   37 1
    31   16   38 1
    32   17   18 1
    33   17   39 1
    34   18   19 1
    35   18   40 1
    36   18   41 1
    37   19   24 ar
    38   19   20 ar
    39   20   21 ar
    40   20   42 1
    41   21   22 ar
    42   21   43 1
    43   22   23 ar
    44   22   26 1
    45   23   24 ar
    46   23   25 1
    47   24   44 1
@<TRIPOS>MOLECULE
CHEMBL313220__1
   44    47     0     0     0
SMALL
USER_CHARGES

@<TRIPOS>ATOM
      1 C1          0.2656    1.2849    0.0144 C.ar      1 <0>        -0.0656
      2 C2          1.4843    1.9325   -0.0321 C.ar      1 <0>        -0.1365
      3 C3          2.6596    1.1998   -0.0253 C.ar      1 <0>         0.1177
      4 C4          2.6151   -0.1835    0.0277 C.ar      1 <0>        -0.1401
      5 C5          1.3984   -0.8348    0.0739 C.ar      1 <0>        -0.0824
      6 C6          0.2189   -0.1019    0.0680 C.ar      1 <0>         0.1133
      7 N1         -1.0168   -0.7609    0.1157 N.pl3     1 <0>        -0.2278
      8 C7         -1.3481   -1.8431   -0.6238 C.2       1 <0>         0.0191
      9 C8         -2.6167   -2.1826   -0.2908 C.2       1 <0>        -0.1470
     10 C9         -3.0255   -1.2491    0.6804 C.2       1 <0>        -0.0517
     11 N2         -2.0034   -0.4285    0.8749 N.2       1 <0>        -0.2289
     12 C10        -4.3312   -1.1977    1.3521 C.2       1 <0>         0.4203
     13 O1         -4.5562   -0.3358    2.1753 O.2       1 <0>        -0.4451
     14 C11        -3.3739   -3.3405   -0.8803 C.3       1 <0>        -0.0497
     15 C12        -2.3686   -4.2714   -1.5718 C.3       1 <0>        -0.1207
     16 C13        -1.4592   -3.4505   -2.4900 C.3       1 <0>        -0.1137
     17 C14        -0.5200   -2.5821   -1.6432 C.3       1 <0>        -0.0088
     18 C15         0.2061   -1.5795   -2.5423 C.3       1 <0>        -0.0930
     19 C16         1.1227   -2.3195   -3.4821 C.ar      1 <0>        -0.0592
     20 C17         2.4268   -2.5856   -3.1080 C.ar      1 <0>        -0.0983
     21 C18         3.2694   -3.2641   -3.9682 C.ar      1 <0>        -0.1198
     22 C19         2.8077   -3.6785   -5.2055 C.ar      1 <0>         0.0654
     23 C20         1.4997   -3.4121   -5.5805 C.ar      1 <0>         0.0729
     24 C21         0.6571   -2.7366   -4.7148 C.ar      1 <0>        -0.1210
     25 F1          1.0470   -3.8152   -6.7879 F         1 <0>        -0.1261
     26 F2          3.6308   -4.3415   -6.0471 F         1 <0>        -0.1270
     27 F3          3.8510    1.8352   -0.0708 F         1 <0>        -0.1280
     28 H1         -0.6506    1.8568    0.0135 H         1 <0>         0.1467
     29 H2          1.5210    3.0111   -0.0742 H         1 <0>         0.1511
     30 H3          3.5327   -0.7531    0.0326 H         1 <0>         0.1520
     31 H4          1.3641   -1.9135    0.1145 H         1 <0>         0.1448
     32 H5         -5.0906   -1.9274    1.1129 H         1 <0>         0.1275
     33 H6         -3.8918   -3.8820   -0.0887 H         1 <0>         0.0825
     34 H7         -4.0967   -2.9739   -1.6092 H         1 <0>         0.0823
     35 H8         -1.7638   -4.7764   -0.8186 H         1 <0>         0.0678
     36 H9         -2.9069   -5.0129   -2.1622 H         1 <0>         0.0762
     37 H10        -0.8690   -4.1233   -3.1121 H         1 <0>         0.0783
     38 H11        -2.0695   -2.8101   -3.1269 H         1 <0>         0.0727
     39 H12         0.2077   -3.2155   -1.1359 H         1 <0>         0.0934
     40 H13        -0.5249   -1.0128   -3.1190 H         1 <0>         0.0846
     41 H14         0.7914   -0.8967   -1.9265 H         1 <0>         0.0889
     42 H15         2.7877   -2.2625   -2.1427 H         1 <0>         0.1381
     43 H16         4.2881   -3.4707   -3.6751 H         1 <0>         0.1481
     44 H17        -0.3631   -2.5318   -5.0042 H         1 <0>         0.1469
@<TRIPOS>BOND
     1    1    6 ar
     2    1    2 ar
     3    1   28 1
     4    2    3 ar
     5    2   29 1
     6    3    4 ar
     7    3   27 1
     8    4    5 ar
     9    4   30 1
    10    5    6 ar
    11    5   31 1
    12    6    7 1
    13    7   11 1
    14    7    8 1
    15    8   17 1
    16    8    9 2
    17    9   10 1
    18    9   14 1
    19   10   11 2
    20   10   12 1
    21   12   13 2
    22   12   32 1
    23   14   15 1
    24   14   33 1
    25   14   34 1
    26   15   16 1
    27   15   35 1
    28   15   36 1
    29   16   17 1
    30   16   37 1
    31   16   38 1
    32   17   18 1
    33   17   39 1
    34   18   19 1
    35   18   40 1
    36   18   41 1
    37   19   24 ar
    38   19   20 ar
    39   20   21 ar
    40   20   42 1
    41   21   22 ar
    42   21   43 1
    43   22   23 ar
    44   22   26 1
    45   23   24 ar
    46   23   25 1
    47   24   44 1
@<TRIPOS>MOLECULE
CHEMBL539163
   36    38     0     0     0
SMALL
USER_CHARGES

@<TRIPOS>ATOM
      1 C1         -0.8467    1.6941    1.7169 C.3       1 <0>        -0.1434
      2 C2         -0.6517    0.1873    1.5369 C.3       1 <0>         0.1487
      3 C3         -1.9429   -0.4373    1.0709 C.ar      1 <0>        -0.1391
      4 C4         -2.8255    0.2667    0.2862 C.ar      1 <0>        -0.0476
      5 C5         -4.0140   -0.3376   -0.1334 C.ar      1 <0>        -0.0248
      6 C6         -4.2992   -1.6516    0.2458 C.ar      1 <0>        -0.0903
      7 C7         -3.4098   -2.3504    1.0338 C.ar      1 <0>        -0.1203
      8 C8         -2.2308   -1.7467    1.4487 C.ar      1 <0>         0.1305
      9 N1         -1.3139   -2.4330    2.2507 N.pl3     1 <0>        -0.6076
     10 C9         -0.3482   -1.7410    2.8899 C.2       1 <0>         0.5013
     11 S1          0.8026   -2.5770    3.8428 S.2       1 <0>        -0.4891
     12 O1         -0.2793   -0.4005    2.7868 O.3       1 <0>        -0.2751
     13 C10        -4.9674    0.4123   -0.9761 C.2       1 <0>         0.0858
     14 C11        -5.0442    1.7842   -1.0826 C.2       1 <0>        -0.1724
     15 C12        -6.0716    2.0823   -1.9768 C.2       1 <0>        -0.1073
     16 C13        -6.6092    0.8845   -2.4048 C.2       1 <0>         0.0623
     17 N2         -5.9203   -0.1356   -1.7879 N.pl3     1 <0>        -0.4145
     18 C14        -6.1692   -1.5679   -1.9689 C.3       1 <0>         0.0542
     19 C15        -7.6903    0.7304   -3.3311 C.1       1 <0>         0.2742
     20 N3         -8.5479    0.6081   -4.0659 N.1       1 <0>        -0.3987
     21 C16         0.4468   -0.0677    0.5029 C.3       1 <0>        -0.1712
     22 H1          0.0841    2.1419    2.0648 H         1 <0>         0.0831
     23 H2         -1.1304    2.1401    0.7636 H         1 <0>         0.0913
     24 H3         -1.6328    1.8737    2.4503 H         1 <0>         0.0760
     25 H4         -2.6015    1.2825   -0.0045 H         1 <0>         0.1487
     26 H5         -5.2168   -2.1200   -0.0783 H         1 <0>         0.1404
     27 H6         -3.6297   -3.3662    1.3274 H         1 <0>         0.1427
     28 H7         -1.3717   -3.3965    2.3468 H         1 <0>         0.4430
     29 H8         -4.4212    2.4994   -0.5662 H         1 <0>         0.1541
     30 H9         -6.3889    3.0693   -2.2793 H         1 <0>         0.1562
     31 H10        -6.8229   -1.9264   -1.1737 H         1 <0>         0.0871
     32 H11        -6.6466   -1.7345   -2.9345 H         1 <0>         0.0901
     33 H12        -5.2234   -2.1085   -1.9331 H         1 <0>         0.0978
     34 H13         1.3795    0.3800    0.8459 H         1 <0>         0.0850
     35 H14         0.5842   -1.1415    0.3761 H         1 <0>         0.0610
     36 H15         0.1591    0.3768   -0.4499 H         1 <0>         0.0879
@<TRIPOS>BOND
     1    1    2 1
     2    1   22 1
     3    1   23 1
     4    1   24 1
     5    2   12 1
     6    2    3 1
     7    2   21 1
     8    3    8 ar
     9    3    4 ar
    10    4    5 ar
    11    4   25 1
    12    5    6 ar
    13    5   13 1
    14    6    7 ar
    15    6   26 1
    16    7    8 ar
    17    7   27 1
    18    8    9 1
    19    9   10 1
    20    9   28 1
    21   10   11 2
    22   10   12 1
    23   13   17 1
    24   13   14 2
    25   14   15 1
    26   14   29 1
    27   15   16 2
    28   15   30 1
    29   16   17 1
    30   16   19 1
    31   17   18 1
    32   18   31 1
    33   18   32 1
    34   18   33 1
    35   19   20 3
    36   21   34 1
    37   21   35 1
    38   21   36 1
@<TRIPOS>MOLECULE
CHEMBL139749
   32    34     0     0     0
SMALL
USER_CHARGES

@<TRIPOS>ATOM
      1 C1         -0.0187    1.5258    0.0104 C.3       1 <0>        -0.1427
      2 C2          0.0021   -0.0041    0.0020 C.3       1 <0>         0.1663
      3 C3         -1.4115   -0.5287    0.0284 C.ar      1 <0>        -0.1553
      4 C4         -2.4388    0.1750   -0.5577 C.ar      1 <0>        -0.0588
      5 C5         -3.7364   -0.3344   -0.5194 C.ar      1 <0>        -0.0449
      6 C6         -3.9881   -1.5518    0.1110 C.ar      1 <0>        -0.0711
      7 C7         -2.9543   -2.2527    0.6979 C.ar      1 <0>        -0.1397
      8 C8         -1.6652   -1.7432    0.6589 C.ar      1 <0>         0.1638
      9 N1         -0.5982   -2.4315    1.2503 N.am      1 <0>        -0.6687
     10 C9          0.5636   -1.7823    1.4718 C.2       1 <0>         0.6621
     11 O1          1.5029   -2.3804    1.9583 O.2       1 <0>        -0.5009
     12 O2          0.6935   -0.4804    1.1602 O.3       1 <0>        -0.3314
     13 C10        -4.8490    0.4196   -1.1491 C.2       1 <0>        -0.0986
     14 C11        -6.1454   -0.0678   -1.1166 C.2       1 <0>        -0.0662
     15 C12        -7.1006    0.7182   -1.7345 C.2       1 <0>        -0.1567
     16 S1         -6.1351    2.0939   -2.3263 S.3       1 <0>         0.2881
     17 C13        -4.6202    1.6230   -1.7749 C.2       1 <0>        -0.2276
     18 C14        -8.5074    0.4855   -1.8660 C.1       1 <0>         0.2902
     19 N2         -9.6234    0.3009   -1.9704 N.1       1 <0>        -0.3913
     20 C15         0.7122   -0.5001   -1.2591 C.3       1 <0>        -0.1720
     21 H1          1.0039    1.9031    0.0027 H         1 <0>         0.0790
     22 H2         -0.5459    1.8868   -0.8726 H         1 <0>         0.0861
     23 H3         -0.5289    1.8773    0.9072 H         1 <0>         0.0741
     24 H4         -2.2409    1.1182   -1.0452 H         1 <0>         0.1373
     25 H5         -4.9929   -1.9466    0.1404 H         1 <0>         0.1359
     26 H6         -3.1488   -3.1961    1.1863 H         1 <0>         0.1380
     27 H7         -0.6934   -3.3646    1.4975 H         1 <0>         0.4307
     28 H8         -6.3945   -1.0038   -0.6387 H         1 <0>         0.1534
     29 H9         -3.6812    2.1445   -1.8877 H         1 <0>         0.1961
     30 H10         1.7351   -0.1237   -1.2720 H         1 <0>         0.0797
     31 H11         0.7261   -1.5900   -1.2634 H         1 <0>         0.0610
     32 H12         0.1815   -0.1400   -2.1404 H         1 <0>         0.0843
@<TRIPOS>BOND
     1    1    2 1
     2    1   21 1
     3    1   22 1
     4    1   23 1
     5    2   12 1
     6    2    3 1
     7    2   20 1
     8    3    8 ar
     9    3    4 ar
    10    4    5 ar
    11    4   24 1
    12    5    6 ar
    13    5   13 1
    14    6    7 ar
    15    6   25 1
    16    7    8 ar
    17    7   26 1
    18    8    9 1
    19    9   10 am
    20    9   27 1
    21   10   11 2
    22   10   12 1
    23   13   17 2
    24   13   14 1
    25   14   15 2
    26   14   28 1
    27   15   16 1
    28   15   18 1
    29   16   17 1
    30   17   29 1
    31   18   19 3
    32   20   30 1
    33   20   31 1
    34   20   32 1
@<TRIPOS>MOLECULE
CHEMBL164187
   46    49     0     0     0
SMALL
USER_CHARGES

@<TRIPOS>ATOM
      1 C1         -1.9611    0.5760    0.3865 C.3       1 <0>        -0.0978
      2 C2         -0.8391   -0.4053    0.1649 C.2       1 <0>        -0.1337
      3 C3         -0.7198   -1.0700   -1.0241 C.2       1 <0>        -0.0658
      4 C4          0.3287   -1.9645   -1.1844 C.2       1 <0>        -0.1383
      5 S1          1.1602   -1.8548    0.3915 S.3       1 <0>         0.1441
      6 C5          0.0941   -0.6464    1.1597 C.2       1 <0>        -0.0678
      7 C6          0.1830   -0.0566    2.5107 C.ar      1 <0>        -0.0763
      8 C7          0.0560    1.3243    2.6805 C.ar      1 <0>        -0.0370
      9 C8          0.1403    1.8703    3.9427 C.ar      1 <0>        -0.1868
     10 C9          0.3514    1.0481    5.0432 C.ar      1 <0>         0.2367
     11 C10         0.4772   -0.3270    4.8809 C.ar      1 <0>        -0.1790
     12 C11         0.3883   -0.8793    3.6201 C.ar      1 <0>        -0.0390
     13 C12         0.7011   -1.2218    6.0727 C.3       1 <0>         0.1728
     14 C13        -0.6175   -1.8984    6.4552 C.3       1 <0>        -0.1372
     15 C14        -0.3908   -2.8098    7.6630 C.3       1 <0>        -0.1158
     16 C15         0.6449   -3.8787    7.3085 C.3       1 <0>        -0.1203
     17 C16         1.9628   -3.2038    6.9230 C.3       1 <0>        -0.1174
     18 C17         1.7350   -2.2927    5.7152 C.3       1 <0>        -0.1013
     19 O1          1.1783   -0.4549    7.1800 O.3       1 <0>        -0.3645
     20 C18         0.3707    0.6910    7.4770 C.3       1 <0>         0.3073
     21 N1          0.4407    1.6032    6.3245 N.pl3     1 <0>        -0.7569
     22 C19         0.9071    1.3929    8.7262 C.3       1 <0>        -0.1561
     23 C20         0.6590   -2.7691   -2.3220 C.1       1 <0>         0.2931
     24 N2          0.9210   -3.4074   -3.2245 N.1       1 <0>        -0.3970
     25 H1         -1.6132    1.5834    0.1584 H         1 <0>         0.0712
     26 H2         -2.7979    0.3244   -0.2651 H         1 <0>         0.0681
     27 H3         -2.2840    0.5299    1.4266 H         1 <0>         0.0715
     28 H4         -1.4278   -0.9025   -1.8222 H         1 <0>         0.1459
     29 H5         -0.1082    1.9621    1.8246 H         1 <0>         0.1304
     30 H6          0.0428    2.9375    4.0769 H         1 <0>         0.1294
     31 H7          0.4823   -1.9473    3.4904 H         1 <0>         0.1283
     32 H8         -1.3564   -1.1378    6.7075 H         1 <0>         0.0633
     33 H9         -0.9787   -2.4915    5.6151 H         1 <0>         0.0759
     34 H10        -0.0282   -2.2168    8.5026 H         1 <0>         0.0676
     35 H11        -1.3300   -3.2906    7.9366 H         1 <0>         0.0630
     36 H12         0.8071   -4.5271    8.1695 H         1 <0>         0.0635
     37 H13         0.2818   -4.4725    6.4697 H         1 <0>         0.0610
     38 H14         2.3263   -2.6106    7.7621 H         1 <0>         0.0713
     39 H15         2.7005   -3.9652    6.6697 H         1 <0>         0.0639
     40 H16         1.3692   -2.8854    4.8767 H         1 <0>         0.0784
     41 H17         2.6742   -1.8134    5.4392 H         1 <0>         0.0722
     42 H18        -0.6617    0.3823    7.6410 H         1 <0>         0.0699
     43 H19         0.5451    2.5595    6.4491 H         1 <0>         0.4079
     44 H20         1.9346    1.7116    8.5509 H         1 <0>         0.0720
     45 H21         0.2894    2.2633    8.9474 H         1 <0>         0.0775
     46 H22         0.8794    0.7038    9.5703 H         1 <0>         0.0817
@<TRIPOS>BOND
     1    1    2 1
     2    1   25 1
     3    1   26 1
     4    1   27 1
     5    2    6 2
     6    2    3 1
     7    3    4 2
     8    3   28 1
     9    4    5 1
    10    4   23 1
    11    5    6 1
    12    6    7 1
    13    7   12 ar
    14    7    8 ar
    15    8    9 ar
    16    8   29 1
    17    9   10 ar
    18    9   30 1
    19   10   21 1
    20   10   11 ar
    21   11   12 ar
    22   11   13 1
    23   12   31 1
    24   13   18 1
    25   13   14 1
    26   13   19 1
    27   14   15 1
    28   14   32 1
    29   14   33 1
    30   15   16 1
    31   15   34 1
    32   15   35 1
    33   16   17 1
    34   16   36 1
    35   16   37 1
    36   17   18 1
    37   17   38 1
    38   17   39 1
    39   18   40 1
    40   18   41 1
    41   19   20 1
    42   20   21 1
    43   20   22 1
    44   20   42 1
    45   21   43 1
    46   22   44 1
    47   22   45 1
    48   22   46 1
    49   23   24 3
@<TRIPOS>MOLECULE
CHEMBL164187__1
   46    49     0     0     0
SMALL
USER_CHARGES

@<TRIPOS>ATOM
      1 C1         -1.9611    0.5760    0.3865 C.3       1 <0>        -0.0980
      2 C2         -0.8390   -0.4052    0.1649 C.2       1 <0>        -0.1334
      3 C3         -0.7198   -1.0700   -1.0241 C.2       1 <0>        -0.0655
      4 C4          0.3287   -1.9645   -1.1844 C.2       1 <0>        -0.1382
      5 S1          1.1602   -1.8548    0.3915 S.3       1 <0>         0.1428
      6 C5          0.0941   -0.6464    1.1597 C.2       1 <0>        -0.0675
      7 C6          0.1830   -0.0566    2.5107 C.ar      1 <0>        -0.0764
      8 C7          0.0560    1.3243    2.6805 C.ar      1 <0>        -0.0370
      9 C8          0.1384    1.8700    3.9430 C.ar      1 <0>        -0.1868
     10 C9          0.3474    1.0475    5.0437 C.ar      1 <0>         0.2367
     11 C10         0.4758   -0.3272    4.8810 C.ar      1 <0>        -0.1791
     12 C11         0.3883   -0.8793    3.6201 C.ar      1 <0>        -0.0390
     13 C12         0.7073   -1.2214    6.0719 C.3       1 <0>         0.1728
     14 C13        -0.1364   -2.4902    5.9244 C.3       1 <0>        -0.1010
     15 C14         0.0982   -3.4008    7.1312 C.3       1 <0>        -0.1174
     16 C15         1.5785   -3.7806    7.2034 C.3       1 <0>        -0.1204
     17 C16         2.4238   -2.5135    7.3475 C.3       1 <0>        -0.1157
     18 C17         2.1880   -1.6027    6.1410 C.3       1 <0>        -0.1374
     19 O1          0.3361   -0.5441    7.2742 O.3       1 <0>        -0.3644
     20 C18         0.9347    0.7504    7.4138 C.3       1 <0>         0.3072
     21 N1          0.4275    1.6017    6.3260 N.pl3     1 <0>        -0.7569
     22 C19         0.5516    1.3550    8.7660 C.3       1 <0>        -0.1560
     23 C20         0.6590   -2.7692   -2.3220 C.1       1 <0>         0.2931
     24 N2          0.9210   -3.4075   -3.2244 N.1       1 <0>        -0.3971
     25 H1         -1.6131    1.5835    0.1584 H         1 <0>         0.0712
     26 H2         -2.7978    0.3244   -0.2652 H         1 <0>         0.0682
     27 H3         -2.2839    0.5299    1.4266 H         1 <0>         0.0718
     28 H4         -1.4278   -0.9024   -1.8223 H         1 <0>         0.1460
     29 H5         -0.1068    1.9623    1.8245 H         1 <0>         0.1304
     30 H6          0.0403    2.9371    4.0773 H         1 <0>         0.1294
     31 H7          0.4819   -1.9474    3.4904 H         1 <0>         0.1284
     32 H8         -1.1914   -2.2210    5.8718 H         1 <0>         0.0722
     33 H9          0.1510   -3.0138    5.0126 H         1 <0>         0.0784
     34 H10        -0.1872   -2.8763    8.0431 H         1 <0>         0.0713
     35 H11        -0.5039   -4.3035    7.0277 H         1 <0>         0.0638
     36 H12         1.7458   -4.4287    8.0636 H         1 <0>         0.0635
     37 H13         1.8637   -4.3059    6.2918 H         1 <0>         0.0610
     38 H14         2.1394   -1.9890    8.2597 H         1 <0>         0.0676
     39 H15         3.4784   -2.7841    7.3978 H         1 <0>         0.0630
     40 H16         2.4711   -2.1277    5.2286 H         1 <0>         0.0758
     41 H17         2.7912   -0.7006    6.2433 H         1 <0>         0.0634
     42 H18         2.0189    0.6654    7.3407 H         1 <0>         0.0699
     43 H19         0.1569    2.5181    6.4927 H         1 <0>         0.4080
     44 H20         0.9050    0.7061    9.5674 H         1 <0>         0.0817
     45 H21         1.0093    2.3391    8.8668 H         1 <0>         0.0775
     46 H22        -0.5325    1.4506    8.8273 H         1 <0>         0.0720
@<TRIPOS>BOND
     1    1    2 1
     2    1   25 1
     3    1   26 1
     4    1   27 1
     5    2    6 2
     6    2    3 1
     7    3    4 2
     8    3   28 1
     9    4    5 1
    10    4   23 1
    11    5    6 1
    12    6    7 1
    13    7   12 ar
    14    7    8 ar
    15    8    9 ar
    16    8   29 1
    17    9   10 ar
    18    9   30 1
    19   10   21 1
    20   10   11 ar
    21   11   12 ar
    22   11   13 1
    23   12   31 1
    24   13   18 1
    25   13   14 1
    26   13   19 1
    27   14   15 1
    28   14   32 1
    29   14   33 1
    30   15   16 1
    31   15   34 1
    32   15   35 1
    33   16   17 1
    34   16   36 1
    35   16   37 1
    36   17   18 1
    37   17   38 1
    38   17   39 1
    39   18   40 1
    40   18   41 1
    41   19   20 1
    42   20   21 1
    43   20   22 1
    44   20   42 1
    45   21   43 1
    46   22   44 1
    47   22   45 1
    48   22   46 1
    49   23   24 3
@<TRIPOS>MOLECULE
CHEMBL144321
   36    38     0     0     0
SMALL
USER_CHARGES

@<TRIPOS>ATOM
      1 C1         -0.0167    1.3795    0.0096 C.ar      1 <0>        -0.1006
      2 C2          1.1682    2.0941    0.0022 C.ar      1 <0>        -0.1238
      3 C3          2.3774    1.4307   -0.0134 C.ar      1 <0>        -0.0766
      4 C4          2.4040    0.0342   -0.0211 C.ar      1 <0>        -0.0527
      5 C5          1.2040   -0.6807   -0.0130 C.ar      1 <0>        -0.0923
      6 C6          0.0021   -0.0041    0.0020 C.ar      1 <0>        -0.1224
      7 C7          3.6931   -0.6822   -0.0382 C.2       1 <0>         0.1573
      8 N1          4.7945   -0.0068   -0.0405 N.2       1 <0>        -0.2462
      9 N2          6.0402   -0.6388   -0.0824 N.am      1 <0>        -0.4531
     10 C8          6.1374   -1.9374   -0.4252 C.2       1 <0>         0.4955
     11 O1          7.2114   -2.5000   -0.3858 O.2       1 <0>        -0.5163
     12 C9          4.9027   -2.6887   -0.8581 C.3       1 <0>        -0.1426
     13 C10         3.7024   -2.1880   -0.0463 C.3       1 <0>        -0.1213
     14 C11         7.2502    0.1178    0.2488 C.3       1 <0>         0.1760
     15 C12         7.8071    0.7474   -1.0020 C.ar      1 <0>        -0.0972
     16 C13         8.7226    0.0569   -1.7745 C.ar      1 <0>        -0.0811
     17 C14         9.2344    0.6334   -2.9215 C.ar      1 <0>        -0.1023
     18 C15         8.8304    1.9020   -3.2976 C.ar      1 <0>        -0.0246
     19 C16         7.9134    2.5932   -2.5244 C.ar      1 <0>        -0.0361
     20 C17         7.3981    2.0125   -1.3793 C.ar      1 <0>        -0.0718
     21 Cl1         7.4058    4.1854   -2.9947 Cl        1 <0>        -0.0453
     22 Cl2         9.4734    2.6268   -4.7381 Cl        1 <0>        -0.0457
     23 H1         -0.9606    1.9041    0.0260 H         1 <0>         0.1261
     24 H2          1.1461    3.1739    0.0081 H         1 <0>         0.1279
     25 H3          3.3014    1.9898   -0.0199 H         1 <0>         0.1337
     26 H4          1.2172   -1.7606   -0.0192 H         1 <0>         0.1305
     27 H5         -0.9265   -0.5555    0.0079 H         1 <0>         0.1289
     28 H6          4.7256   -2.5175   -1.9199 H         1 <0>         0.1068
     29 H7          5.0432   -3.7546   -0.6784 H         1 <0>         0.1169
     30 H8          3.7737   -2.5557    0.9773 H         1 <0>         0.1001
     31 H9          2.7809   -2.5539   -0.4991 H         1 <0>         0.1067
     32 H10         7.0052    0.8975    0.9700 H         1 <0>         0.1026
     33 H11         7.9927   -0.5545    0.6787 H         1 <0>         0.1091
     34 H12         9.0382   -0.9334   -1.4811 H         1 <0>         0.1438
     35 H13         9.9500    0.0938   -3.5241 H         1 <0>         0.1448
     36 H14         6.6797    2.5496   -0.7778 H         1 <0>         0.1454
@<TRIPOS>BOND
     1    1    6 ar
     2    1    2 ar
     3    1   23 1
     4    2    3 ar
     5    2   24 1
     6    3    4 ar
     7    3   25 1
     8    4    5 ar
     9    4    7 1
    10    5    6 ar
    11    5   26 1
    12    6   27 1
    13    7   13 1
    14    7    8 2
    15    8    9 1
    16    9   10 am
    17    9   14 1
    18   10   11 2
    19   10   12 1
    20   12   13 1
    21   12   28 1
    22   12   29 1
    23   13   30 1
    24   13   31 1
    25   14   15 1
    26   14   32 1
    27   14   33 1
    28   15   20 ar
    29   15   16 ar
    30   16   17 ar
    31   16   34 1
    32   17   18 ar
    33   17   35 1
    34   18   19 ar
    35   18   22 1
    36   19   20 ar
    37   19   21 1
    38   20   36 1
@<TRIPOS>MOLECULE
CHEMBL144680
   39    41     0     0     0
SMALL
USER_CHARGES

@<TRIPOS>ATOM
      1 C1         -0.6104    1.7901   -0.0306 C.3       1 <0>        -0.1490
      2 C2         -0.4191    0.2797   -0.1818 C.3       1 <0>        -0.0883
      3 C3         -1.7409   -0.4306    0.1191 C.3       1 <0>        -0.1340
      4 C4         -1.4733   -1.9399    0.2126 C.3       1 <0>         0.0804
      5 N1         -0.5146   -2.1530    1.3074 N.am      1 <0>        -0.4566
      6 N2          0.5825   -1.2889    1.4212 N.2       1 <0>        -0.2584
      7 C5          0.6509   -0.1826    0.7648 C.2       1 <0>         0.1791
      8 C6          1.8385    0.6715    0.9519 C.ar      1 <0>        -0.0556
      9 C7          2.4728    0.7289    2.1952 C.ar      1 <0>        -0.0861
     10 C8          3.5834    1.5296    2.3627 C.ar      1 <0>        -0.1202
     11 C9          4.0693    2.2749    1.3030 C.ar      1 <0>        -0.0998
     12 C10         3.4458    2.2233    0.0688 C.ar      1 <0>        -0.1209
     13 C11         2.3378    1.4226   -0.1149 C.ar      1 <0>        -0.0873
     14 C12        -0.6885   -3.1606    2.1855 C.2       1 <0>         0.5931
     15 O1         -1.5966   -3.9539    2.0285 O.2       1 <0>        -0.5140
     16 C13         0.2241   -3.3012    3.3386 C.ar      1 <0>        -0.1260
     17 C14         1.3513   -2.4834    3.4444 C.ar      1 <0>        -0.0783
     18 C15         2.1997   -2.6189    4.5227 C.ar      1 <0>        -0.1181
     19 C16         1.9365   -3.5638    5.5006 C.ar      1 <0>        -0.0032
     20 C17         0.8197   -4.3787    5.4018 C.ar      1 <0>        -0.0497
     21 C18        -0.0400   -4.2482    4.3299 C.ar      1 <0>        -0.0387
     22 Cl1         0.4976   -5.5603    6.6321 Cl        1 <0>        -0.0402
     23 Cl2         3.0100   -3.7286    6.8549 Cl        1 <0>        -0.0413
     24 H1          0.3399    2.2957   -0.2019 H         1 <0>         0.0740
     25 H2         -1.3434    2.1382   -0.7584 H         1 <0>         0.0672
     26 H3         -0.9641    2.0126    0.9761 H         1 <0>         0.0604
     27 H4         -0.1171    0.0552   -1.2047 H         1 <0>         0.1022
     28 H5         -2.1427   -0.0705    1.0662 H         1 <0>         0.0776
     29 H6         -2.4529   -0.2339   -0.6824 H         1 <0>         0.0972
     30 H7         -2.4026   -2.4679    0.4265 H         1 <0>         0.1080
     31 H8         -1.0499   -2.2995   -0.7252 H         1 <0>         0.0811
     32 H9          2.0944    0.1480    3.0233 H         1 <0>         0.1286
     33 H10         4.0746    1.5752    3.3234 H         1 <0>         0.1293
     34 H11         4.9392    2.9001    1.4399 H         1 <0>         0.1270
     35 H12         3.8303    2.8079   -0.7539 H         1 <0>         0.1295
     36 H13         1.8548    1.3798   -1.0799 H         1 <0>         0.1303
     37 H14         1.5581   -1.7463    2.6826 H         1 <0>         0.1992
     38 H15         3.0717   -1.9870    4.6049 H         1 <0>         0.1479
     39 H16        -0.9127   -4.8802    4.2559 H         1 <0>         0.1537
@<TRIPOS>BOND
     1    1    2 1
     2    1   24 1
     3    1   25 1
     4    1   26 1
     5    2    7 1
     6    2    3 1
     7    2   27 1
     8    3    4 1
     9    3   28 1
    10    3   29 1
    11    4    5 1
    12    4   30 1
    13    4   31 1
    14    5    6 1
    15    5   14 am
    16    6    7 2
    17    7    8 1
    18    8   13 ar
    19    8    9 ar
    20    9   10 ar
    21    9   32 1
    22   10   11 ar
    23   10   33 1
    24   11   12 ar
    25   11   34 1
    26   12   13 ar
    27   12   35 1
    28   13   36 1
    29   14   15 2
    30   14   16 1
    31   16   21 ar
    32   16   17 ar
    33   17   18 ar
    34   17   37 1
    35   18   19 ar
    36   18   38 1
    37   19   20 ar
    38   19   23 1
    39   20   21 ar
    40   20   22 1
    41   21   39 1
@<TRIPOS>MOLECULE
CHEMBL144680__1
   39    41     0     0     0
SMALL
USER_CHARGES

@<TRIPOS>ATOM
      1 C1         -0.0094    1.3254    0.2990 C.3       1 <0>        -0.1465
      2 C2          0.0428   -0.2002    0.1961 C.3       1 <0>        -0.0883
      3 C3          0.5849   -0.5965   -1.1791 C.3       1 <0>        -0.1338
      4 C4          0.8693   -2.1057   -1.1749 C.3       1 <0>         0.0789
      5 N1          1.8739   -2.3644   -0.1324 N.am      1 <0>        -0.4570
      6 N2          1.7411   -1.7234    1.1065 N.2       1 <0>        -0.2580
      7 C5          0.9262   -0.7414    1.2829 C.2       1 <0>         0.1786
      8 C6          0.8580   -0.1179    2.6176 C.ar      1 <0>        -0.0548
      9 C7          2.0092   -0.0103    3.4016 C.ar      1 <0>        -0.0863
     10 C8          1.9380    0.5745    4.6488 C.ar      1 <0>        -0.1199
     11 C9          0.7300    1.0538    5.1239 C.ar      1 <0>        -0.1002
     12 C10        -0.4144    0.9501    4.3530 C.ar      1 <0>        -0.1205
     13 C11        -0.3570    0.3730    3.1016 C.ar      1 <0>        -0.0873
     14 C12         2.9032   -3.2030   -0.3643 C.2       1 <0>         0.5936
     15 O1          3.0629   -3.6777   -1.4723 O.2       1 <0>        -0.5141
     16 C13         3.8374   -3.5455    0.7277 C.ar      1 <0>        -0.1261
     17 C14         3.7484   -2.8901    1.9578 C.ar      1 <0>        -0.0762
     18 C15         4.6228   -3.2135    2.9735 C.ar      1 <0>        -0.1178
     19 C16         5.5887   -4.1866    2.7765 C.ar      1 <0>        -0.0032
     20 C17         5.6825   -4.8409    1.5582 C.ar      1 <0>        -0.0499
     21 C18         4.8089   -4.5296    0.5360 C.ar      1 <0>        -0.0386
     22 Cl1         6.8962   -6.0591    1.3201 Cl        1 <0>        -0.0404
     23 Cl2         6.6863   -4.5878    4.0602 Cl        1 <0>        -0.0414
     24 H1          1.0045    1.7253    0.2861 H         1 <0>         0.0606
     25 H2         -0.5693    1.7276   -0.5453 H         1 <0>         0.0671
     26 H3         -0.5004    1.6103    1.2295 H         1 <0>         0.0721
     27 H4         -0.9628   -0.6040    0.3142 H         1 <0>         0.1017
     28 H5         -0.1555   -0.3656   -1.9450 H         1 <0>         0.0969
     29 H6          1.5067   -0.0508   -1.3805 H         1 <0>         0.0778
     30 H7         -0.0458   -2.6541   -0.9511 H         1 <0>         0.0810
     31 H8          1.2569   -2.4119   -2.1465 H         1 <0>         0.1093
     32 H9          2.9526   -0.3843    3.0322 H         1 <0>         0.1279
     33 H10         2.8271    0.6581    5.2561 H         1 <0>         0.1292
     34 H11         0.6801    1.5107    6.1012 H         1 <0>         0.1269
     35 H12        -1.3540    1.3261    4.7303 H         1 <0>         0.1294
     36 H13        -1.2502    0.2968    2.4991 H         1 <0>         0.1300
     37 H14         2.9961   -2.1309    2.1130 H         1 <0>         0.1976
     38 H15         4.5547   -2.7068    3.9249 H         1 <0>         0.1479
     39 H16         4.8795   -5.0431   -0.4115 H         1 <0>         0.1536
@<TRIPOS>BOND
     1    1    2 1
     2    1   24 1
     3    1   25 1
     4    1   26 1
     5    2    7 1
     6    2    3 1
     7    2   27 1
     8    3    4 1
     9    3   28 1
    10    3   29 1
    11    4    5 1
    12    4   30 1
    13    4   31 1
    14    5    6 1
    15    5   14 am
    16    6    7 2
    17    7    8 1
    18    8   13 ar
    19    8    9 ar
    20    9   10 ar
    21    9   32 1
    22   10   11 ar
    23   10   33 1
    24   11   12 ar
    25   11   34 1
    26   12   13 ar
    27   12   35 1
    28   13   36 1
    29   14   15 2
    30   14   16 1
    31   16   21 ar
    32   16   17 ar
    33   17   18 ar
    34   17   37 1
    35   18   19 ar
    36   18   38 1
    37   19   20 ar
    38   19   23 1
    39   20   21 ar
    40   20   22 1
    41   21   39 1
@<TRIPOS>MOLECULE
CHEMBL280121
   44    47     0     0     0
SMALL
USER_CHARGES

@<TRIPOS>ATOM
      1 C1         -0.0187    1.5258    0.0104 C.3       1 <0>        -0.1457
      2 C2          0.0021   -0.0041    0.0020 C.3       1 <0>         0.1595
      3 C3         -1.4115   -0.5287    0.0287 C.ar      1 <0>        -0.1427
      4 C4         -2.4382    0.1744   -0.5580 C.ar      1 <0>        -0.0594
      5 C5         -3.7362   -0.3355   -0.5203 C.ar      1 <0>        -0.0491
      6 C6         -3.9881   -1.5531    0.1103 C.ar      1 <0>        -0.0708
      7 C7         -2.9549   -2.2537    0.6975 C.ar      1 <0>        -0.1224
      8 C8         -1.6653   -1.7436    0.6595 C.ar      1 <0>         0.1308
      9 N1         -0.6001   -2.4315    1.2503 N.pl3     1 <0>        -0.6078
     10 C9          0.5621   -1.7834    1.4723 C.2       1 <0>         0.4985
     11 O1          0.6935   -0.4804    1.1602 O.3       1 <0>        -0.2678
     12 S1          1.8840   -2.6270    2.1592 S.2       1 <0>        -0.4878
     13 C10        -4.8479    0.4178   -1.1506 C.ar      1 <0>        -0.0347
     14 C11        -4.5975    1.6328   -1.7862 C.ar      1 <0>        -0.1059
     15 C12        -5.6350    2.3298   -2.3710 C.ar      1 <0>        -0.1004
     16 C13        -6.9223    1.8253   -2.3276 C.ar      1 <0>        -0.1059
     17 C14        -7.1773    0.6193   -1.6979 C.ar      1 <0>        -0.0304
     18 C15        -6.1450   -0.0894   -1.1142 C.ar      1 <0>        -0.1016
     19 Cl1        -8.7957   -0.0068   -1.6472 Cl        1 <0>        -0.0625
     20 C16         0.7121   -0.5002   -1.2592 C.3       1 <0>        -0.0940
     21 C17         2.1263    0.0202   -1.2771 C.ar      1 <0>        -0.0928
     22 C18         2.4077    1.2367   -1.8702 C.ar      1 <0>        -0.1132
     23 C19         3.7049    1.7141   -1.8866 C.ar      1 <0>        -0.1227
     24 C20         4.7207    0.9751   -1.3095 C.ar      1 <0>        -0.1163
     25 C21         4.4392   -0.2410   -0.7156 C.ar      1 <0>        -0.1127
     26 C22         3.1413   -0.7164   -0.6954 C.ar      1 <0>        -0.0975
     27 H1          1.0039    1.9031    0.0027 H         1 <0>         0.0875
     28 H2         -0.5459    1.8868   -0.8726 H         1 <0>         0.0878
     29 H3         -0.5289    1.8773    0.9072 H         1 <0>         0.0750
     30 H4         -2.2402    1.1175   -1.0455 H         1 <0>         0.1436
     31 H5         -4.9928   -1.9483    0.1389 H         1 <0>         0.1414
     32 H6         -3.1495   -3.1972    1.1856 H         1 <0>         0.1430
     33 H7         -3.5931    2.0282   -1.8207 H         1 <0>         0.1321
     34 H8         -5.4417    3.2715   -2.8633 H         1 <0>         0.1378
     35 H9         -7.7312    2.3745   -2.7863 H         1 <0>         0.1370
     36 H10        -6.3437   -1.0327   -0.6272 H         1 <0>         0.1374
     37 H11         0.7260   -1.5901   -1.2634 H         1 <0>         0.0755
     38 H12         0.1813   -0.1401   -2.1405 H         1 <0>         0.0999
     39 H13         1.6141    1.8141   -2.3210 H         1 <0>         0.1204
     40 H14         3.9249    2.6642   -2.3506 H         1 <0>         0.1222
     41 H15         5.7343    1.3477   -1.3229 H         1 <0>         0.1218
     42 H16         5.2328   -0.8186   -0.2650 H         1 <0>         0.1238
     43 H17         2.9207   -1.6647   -0.2281 H         1 <0>         0.1259
     44 H18        -0.6962   -3.3644    1.4979 H         1 <0>         0.4429
@<TRIPOS>BOND
     1    1    2 1
     2    1   27 1
     3    1   28 1
     4    1   29 1
     5    2   11 1
     6    2    3 1
     7    2   20 1
     8    3    8 ar
     9    3    4 ar
    10    4    5 ar
    11    4   30 1
    12    5    6 ar
    13    5   13 1
    14    6    7 ar
    15    6   31 1
    16    7    8 ar
    17    7   32 1
    18    8    9 1
    19    9   10 1
    20    9   44 1
    21   10   11 1
    22   10   12 2
    23   13   18 ar
    24   13   14 ar
    25   14   15 ar
    26   14   33 1
    27   15   16 ar
    28   15   34 1
    29   16   17 ar
    30   16   35 1
    31   17   18 ar
    32   17   19 1
    33   18   36 1
    34   20   21 1
    35   20   37 1
    36   20   38 1
    37   21   26 ar
    38   21   22 ar
    39   22   23 ar
    40   22   39 1
    41   23   24 ar
    42   23   40 1
    43   24   25 ar
    44   24   41 1
    45   25   26 ar
    46   25   42 1
    47   26   43 1
@<TRIPOS>MOLECULE
CHEMBL280121__1
   44    47     0     0     0
SMALL
USER_CHARGES

@<TRIPOS>ATOM
      1 C1         -0.0187    1.5258    0.0104 C.3       1 <0>        -0.1452
      2 C2          0.0021   -0.0041    0.0020 C.3       1 <0>         0.1597
      3 C3          0.7214   -0.4929   -1.2299 C.ar      1 <0>        -0.1427
      4 C4          0.6864    0.2269   -2.4019 C.ar      1 <0>        -0.0595
      5 C5          1.3591   -0.2498   -3.5272 C.ar      1 <0>        -0.0491
      6 C6          2.0632   -1.4514   -3.4607 C.ar      1 <0>        -0.0708
      7 C7          2.0961   -2.1683   -2.2825 C.ar      1 <0>        -0.1224
      8 C8          1.4264   -1.6917   -1.1650 C.ar      1 <0>         0.1309
      9 N1          1.4460   -2.3971    0.0428 N.pl3     1 <0>        -0.6077
     10 C9          1.0627   -1.7750    1.1769 C.2       1 <0>         0.4986
     11 O1          0.6935   -0.4804    1.1602 O.3       1 <0>        -0.2685
     12 S1          1.0452   -2.6414    2.6534 S.2       1 <0>        -0.4884
     13 C10         1.3250    0.5211   -4.7941 C.ar      1 <0>        -0.0347
     14 C11         0.6261    1.7252   -4.8615 C.ar      1 <0>        -0.1059
     15 C12         0.5973    2.4387   -6.0423 C.ar      1 <0>        -0.1004
     16 C13         1.2603    1.9614   -7.1586 C.ar      1 <0>        -0.1059
     17 C14         1.9560    0.7663   -7.0980 C.ar      1 <0>        -0.0304
     18 C15         1.9961    0.0469   -5.9192 C.ar      1 <0>        -0.1015
     19 Cl1         2.7850    0.1738   -8.5036 Cl        1 <0>        -0.0626
     20 C16        -1.4324   -0.5362    0.0064 C.3       1 <0>        -0.0939
     21 C17        -2.1809    0.0468    1.1772 C.ar      1 <0>        -0.0917
     22 C18        -2.1750   -0.6061    2.3957 C.ar      1 <0>        -0.0984
     23 C19        -2.8616   -0.0713    3.4697 C.ar      1 <0>        -0.1137
     24 C20        -3.5537    1.1166    3.3253 C.ar      1 <0>        -0.1165
     25 C21        -3.5589    1.7699    2.1071 C.ar      1 <0>        -0.1224
     26 C22        -2.8687    1.2373    1.0343 C.ar      1 <0>        -0.1132
     27 H1          1.0039    1.9031    0.0027 H         1 <0>         0.0747
     28 H2         -0.5459    1.8868   -0.8726 H         1 <0>         0.0877
     29 H3         -0.5289    1.8773    0.9072 H         1 <0>         0.0877
     30 H4          0.1399    1.1572   -2.4507 H         1 <0>         0.1436
     31 H5          2.5834   -1.8210   -4.3320 H         1 <0>         0.1414
     32 H6          2.6414   -3.0991   -2.2305 H         1 <0>         0.1430
     33 H7          0.1077    2.0991   -3.9909 H         1 <0>         0.1321
     34 H8          0.0557    3.3716   -6.0952 H         1 <0>         0.1378
     35 H9          1.2347    2.5230   -8.0807 H         1 <0>         0.1370
     36 H10         2.5431   -0.8831   -5.8711 H         1 <0>         0.1374
     37 H11        -1.9288   -0.2504   -0.9210 H         1 <0>         0.0995
     38 H12        -1.4165   -1.6229    0.0900 H         1 <0>         0.0760
     39 H13        -1.6343   -1.5341    2.5084 H         1 <0>         0.1261
     40 H14        -2.8576   -0.5817    4.4214 H         1 <0>         0.1240
     41 H15        -4.0908    1.5340    4.1642 H         1 <0>         0.1220
     42 H16        -4.0999    2.6978    1.9943 H         1 <0>         0.1225
     43 H17        -2.8697    1.7496    0.0835 H         1 <0>         0.1205
     44 H18         1.7318   -3.3238    0.0646 H         1 <0>         0.4430
@<TRIPOS>BOND
     1    1    2 1
     2    1   27 1
     3    1   28 1
     4    1   29 1
     5    2   11 1
     6    2    3 1
     7    2   20 1
     8    3    8 ar
     9    3    4 ar
    10    4    5 ar
    11    4   30 1
    12    5    6 ar
    13    5   13 1
    14    6    7 ar
    15    6   31 1
    16    7    8 ar
    17    7   32 1
    18    8    9 1
    19    9   10 1
    20    9   44 1
    21   10   11 1
    22   10   12 2
    23   13   18 ar
    24   13   14 ar
    25   14   15 ar
    26   14   33 1
    27   15   16 ar
    28   15   34 1
    29   16   17 ar
    30   16   35 1
    31   17   18 ar
    32   17   19 1
    33   18   36 1
    34   20   21 1
    35   20   37 1
    36   20   38 1
    37   21   26 ar
    38   21   22 ar
    39   22   23 ar
    40   22   39 1
    41   23   24 ar
    42   23   40 1
    43   24   25 ar
    44   24   41 1
    45   25   26 ar
    46   25   42 1
    47   26   43 1
@<TRIPOS>MOLECULE
CHEMBL70381
   50    52     0     0     0
SMALL
USER_CHARGES

@<TRIPOS>ATOM
      1 C1         -0.0184    1.5028    0.0103 C.3       1 <0>        -0.0768
      2 C2          0.0021   -0.0041    0.0020 C.ar      1 <0>        -0.1491
      3 C3          0.0058   -0.6930   -1.2029 C.ar      1 <0>         0.2869
      4 C4          0.0246   -2.0824   -1.2070 C.ar      1 <0>        -0.2572
      5 C5          0.0396   -2.7781   -0.0132 C.ar      1 <0>        -0.0721
      6 C6          0.0355   -2.0956    1.1877 C.ar      1 <0>        -0.2209
      7 C7          0.0230   -0.7057    1.1989 C.ar      1 <0>         0.1877
      8 N1          0.0256   -0.0163    2.4135 N.pl3     1 <0>        -0.6494
      9 C8          1.2955    0.3621    3.0383 C.3       1 <0>         0.1760
     10 C9          1.7078    1.7273    2.5513 C.ar      1 <0>        -0.0961
     11 C10         2.4887    1.8499    1.4172 C.ar      1 <0>        -0.0817
     12 C11         2.8669    3.1022    0.9705 C.ar      1 <0>        -0.1237
     13 C12         2.4638    4.2320    1.6576 C.ar      1 <0>        -0.1233
     14 C13         1.6821    4.1095    2.7911 C.ar      1 <0>        -0.1302
     15 C14         1.3004    2.8573    3.2353 C.ar      1 <0>        -0.1086
     16 C15        -1.2416    0.3285    3.0628 C.3       1 <0>         0.1850
     17 C16        -1.6529   -0.7888    3.9867 C.ar      1 <0>        -0.1189
     18 C17        -2.5993   -1.7100    3.5787 C.ar      1 <0>        -0.0590
     19 C18        -2.9771   -2.7349    4.4253 C.ar      1 <0>        -0.1196
     20 C19        -2.4081   -2.8405    5.6823 C.ar      1 <0>        -0.0134
     21 C20        -1.4607   -1.9200    6.0919 C.ar      1 <0>        -0.1521
     22 C21        -1.0787   -0.8960    5.2419 C.ar      1 <0>         0.1206
     23 F1         -0.1499    0.0011    5.6391 F         1 <0>        -0.1302
     24 Cl1        -2.8838   -4.1280    6.7452 Cl        1 <0>        -0.0677
     25 N2         -0.0099    0.0095   -2.4099 N.2       1 <0>        -1.0921
     26 S1         -0.0054   -0.8133   -3.8470 S.o2      1 <0>         2.5224
     27 O1          1.2388   -1.4995   -3.8681 O.2       1 <0>        -1.0322
     28 O2         -1.2302   -1.5338   -3.8561 O.2       1 <0>        -1.0328
     29 C22        -0.0296    0.4762   -5.1226 C.3       1 <0>        -0.6376
     30 H1          1.0042    1.8801    0.0026 H         1 <0>         0.0579
     31 H2         -0.5455    1.8639   -0.8728 H         1 <0>         0.0583
     32 H3         -0.5286    1.8543    0.9071 H         1 <0>         0.0358
     33 H4          0.0271   -2.6190   -2.1442 H         1 <0>         0.0976
     34 H5          0.0542   -3.8580   -0.0192 H         1 <0>         0.0967
     35 H6          0.0469   -2.6424    2.1189 H         1 <0>         0.0955
     36 H7          1.1754    0.3837    4.1214 H         1 <0>         0.0766
     37 H8          2.0623   -0.3654    2.7722 H         1 <0>         0.0690
     38 H9          2.8037    0.9673    0.8805 H         1 <0>         0.1207
     39 H10         3.4776    3.1980    0.0849 H         1 <0>         0.1169
     40 H11         2.7598    5.2104    1.3089 H         1 <0>         0.1131
     41 H12         1.3674    4.9921    3.3280 H         1 <0>         0.1129
     42 H13         0.6865    2.7618    4.1188 H         1 <0>         0.1133
     43 H14        -1.1179    1.2471    3.6363 H         1 <0>         0.0729
     44 H15        -2.0106    0.4744    2.3043 H         1 <0>         0.0808
     45 H16        -3.0440   -1.6285    2.5979 H         1 <0>         0.1436
     46 H17        -3.7172   -3.4537    4.1058 H         1 <0>         0.1373
     47 H18        -1.0164   -2.0021    7.0729 H         1 <0>         0.1405
     48 H19         0.8523    1.1081   -5.0171 H         1 <0>         0.1139
     49 H20        -0.0279    0.0118   -6.1088 H         1 <0>         0.0988
     50 H21        -0.9275    1.0834   -5.0085 H         1 <0>         0.1139
@<TRIPOS>BOND
     1    1    2 1
     2    1   30 1
     3    1   31 1
     4    1   32 1
     5    2    7 ar
     6    2    3 ar
     7    3    4 ar
     8    3   25 1
     9    4    5 ar
    10    4   33 1
    11    5    6 ar
    12    5   34 1
    13    6    7 ar
    14    6   35 1
    15    7    8 1
    16    8    9 1
    17    8   16 1
    18    9   10 1
    19    9   36 1
    20    9   37 1
    21   10   15 ar
    22   10   11 ar
    23   11   12 ar
    24   11   38 1
    25   12   13 ar
    26   12   39 1
    27   13   14 ar
    28   13   40 1
    29   14   15 ar
    30   14   41 1
    31   15   42 1
    32   16   17 1
    33   16   43 1
    34   16   44 1
    35   17   22 ar
    36   17   18 ar
    37   18   19 ar
    38   18   45 1
    39   19   20 ar
    40   19   46 1
    41   20   21 ar
    42   20   24 1
    43   21   22 ar
    44   21   47 1
    45   22   23 1
    46   25   26 1
    47   26   27 2
    48   26   28 2
    49   26   29 1
    50   29   48 1
    51   29   49 1
    52   29   50 1
@<TRIPOS>MOLECULE
CHEMBL70381__1
   51    53     0     0     0
SMALL
USER_CHARGES

@<TRIPOS>ATOM
      1 C1         -0.2006    1.6960   -0.1281 C.3       1 <0>        -0.1218
      2 C2         -0.2688    0.1945   -0.0190 C.ar      1 <0>        -0.1020
      3 C3         -0.1711   -0.5908   -1.1592 C.ar      1 <0>         0.1504
      4 C4         -0.2344   -1.9750   -1.0551 C.ar      1 <0>        -0.1730
      5 C5         -0.3943   -2.5698    0.1818 C.ar      1 <0>        -0.0900
      6 C6         -0.4923   -1.7911    1.3185 C.ar      1 <0>        -0.1302
      7 C7         -0.4236   -0.4062    1.2222 C.ar      1 <0>         0.1859
      8 N1         -0.5161    0.3802    2.3727 N.pl3     1 <0>        -0.6570
      9 C8          0.6961    0.7446    3.1102 C.3       1 <0>         0.1724
     10 C9          1.2405    2.0426    2.5718 C.ar      1 <0>        -0.1026
     11 C10         2.1494    2.0318    1.5303 C.ar      1 <0>        -0.0989
     12 C11         2.6488    3.2224    1.0364 C.ar      1 <0>        -0.1258
     13 C12         2.2390    4.4239    1.5837 C.ar      1 <0>        -0.1170
     14 C13         1.3294    4.4347    2.6246 C.ar      1 <0>        -0.1217
     15 C14         0.8268    3.2442    3.1157 C.ar      1 <0>        -0.1049
     16 C15        -1.8253    0.8405    2.8421 C.3       1 <0>         0.1839
     17 C16        -2.4030   -0.1747    3.7944 C.ar      1 <0>        -0.1327
     18 C17        -3.3507   -1.0777    3.3505 C.ar      1 <0>        -0.0649
     19 C18        -3.8810   -2.0090    4.2231 C.ar      1 <0>        -0.1192
     20 C19        -3.4634   -2.0389    5.5421 C.ar      1 <0>        -0.0080
     21 C20        -2.5150   -1.1364    5.9877 C.ar      1 <0>        -0.1480
     22 C21        -1.9802   -0.2065    5.1123 C.ar      1 <0>         0.1251
     23 F1         -1.0502    0.6725    5.5452 F         1 <0>        -0.1283
     24 Cl1        -4.1306   -3.2088    6.6375 Cl        1 <0>        -0.0550
     25 N2         -0.0099    0.0095   -2.4099 N.pl3     1 <0>        -1.0524
     26 S1         -0.7247   -0.6570   -3.7467 S.o2      1 <0>         2.6073
     27 O1         -0.4328    0.2475   -4.8030 O.2       1 <0>        -0.9509
     28 O2         -0.2460   -1.9944   -3.7851 O.2       1 <0>        -0.9466
     29 C22        -2.5017   -0.6398   -3.3825 C.3       1 <0>        -0.6677
     30 H1          0.8370    2.0195   -0.0456 H         1 <0>         0.0852
     31 H2         -0.6033    2.0089   -1.0914 H         1 <0>         0.0562
     32 H3         -0.7863    2.1455    0.6739 H         1 <0>         0.0729
     33 H4         -0.1588   -2.5867   -1.9420 H         1 <0>         0.1603
     34 H5         -0.4432   -3.6458    0.2600 H         1 <0>         0.1298
     35 H6         -0.6176   -2.2591    2.2838 H         1 <0>         0.1230
     36 H7          0.4570    0.8616    4.1672 H         1 <0>         0.0870
     37 H8          1.4434   -0.0399    2.9914 H         1 <0>         0.0728
     38 H9          2.4695    1.0932    1.1027 H         1 <0>         0.1174
     39 H10         3.3594    3.2140    0.2231 H         1 <0>         0.1197
     40 H11         2.6297    5.3540    1.1983 H         1 <0>         0.1193
     41 H12         1.0095    5.3733    3.0525 H         1 <0>         0.1196
     42 H13         0.1134    3.2528    3.9265 H         1 <0>         0.1181
     43 H14        -1.7123    1.7960    3.3543 H         1 <0>         0.0821
     44 H15        -2.4946    0.9618    1.9904 H         1 <0>         0.0810
     45 H16        -3.6772   -1.0552    2.3213 H         1 <0>         0.1399
     46 H17        -4.6219   -2.7137    3.8755 H         1 <0>         0.1402
     47 H18        -2.1889   -1.1595    7.0171 H         1 <0>         0.1453
     48 H19         0.5209    0.8170   -2.4955 H         1 <0>         0.4268
     49 H20        -2.8293    0.3870   -3.2198 H         1 <0>         0.1311
     50 H21        -3.0490   -1.0669   -4.2228 H         1 <0>         0.1345
     51 H22        -2.6946   -1.2290   -2.4860 H         1 <0>         0.1313
@<TRIPOS>BOND
     1    1    2 1
     2    1   30 1
     3    1   31 1
     4    1   32 1
     5    2    7 ar
     6    2    3 ar
     7    3    4 ar
     8    3   25 1
     9    4    5 ar
    10    4   33 1
    11    5    6 ar
    12    5   34 1
    13    6    7 ar
    14    6   35 1
    15    7    8 1
    16    8    9 1
    17    8   16 1
    18    9   10 1
    19    9   36 1
    20    9   37 1
    21   10   15 ar
    22   10   11 ar
    23   11   12 ar
    24   11   38 1
    25   12   13 ar
    26   12   39 1
    27   13   14 ar
    28   13   40 1
    29   14   15 ar
    30   14   41 1
    31   15   42 1
    32   16   17 1
    33   16   43 1
    34   16   44 1
    35   17   22 ar
    36   17   18 ar
    37   18   19 ar
    38   18   45 1
    39   19   20 ar
    40   19   46 1
    41   20   21 ar
    42   20   24 1
    43   21   22 ar
    44   21   47 1
    45   22   23 1
    46   25   26 1
    47   25   48 1
    48   26   27 2
    49   26   28 2
    50   26   29 1
    51   29   49 1
    52   29   50 1
    53   29   51 1
@<TRIPOS>MOLECULE
CHEMBL490825
   40    43     0     0     0
SMALL
USER_CHARGES

@<TRIPOS>ATOM
      1 C1         -0.2026    1.5088   -0.0996 C.3       1 <0>        -0.1901
      2 C2          0.0021   -0.0041    0.0020 C.3       1 <0>         0.2223
      3 C3         -1.3418   -0.6640   -0.0205 C.ar      1 <0>        -0.1310
      4 C4         -1.7972   -1.0720   -1.2691 C.ar      1 <0>        -0.0518
      5 C5         -3.0295   -1.6996   -1.4166 C.ar      1 <0>        -0.0481
      6 C6         -3.8201   -1.9216   -0.2861 C.ar      1 <0>        -0.0764
      7 C7         -3.3694   -1.5168    0.9429 C.ar      1 <0>        -0.1550
      8 C8         -2.1245   -0.8797    1.0972 C.ar      1 <0>         0.1908
      9 N1         -1.8076   -0.5214    2.3878 N.am      1 <0>        -0.6463
     10 C9         -0.7373   -0.0682    2.9840 C.2       1 <0>         0.4966
     11 O1         -0.7486   -0.0615    4.1968 O.2       1 <0>        -0.5276
     12 C10         0.4961    0.4409    2.3210 C.3       1 <0>         0.0468
     13 O2          0.7744   -0.2679    1.1352 O.3       1 <0>        -0.3473
     14 C11        -3.4968   -2.1255   -2.7515 C.2       1 <0>         0.1026
     15 C12        -2.8091   -1.9681   -3.9353 C.2       1 <0>        -0.1771
     16 C13        -3.5953   -2.5019   -4.9555 C.2       1 <0>        -0.1039
     17 C14        -4.7553   -2.9792   -4.3783 C.2       1 <0>         0.0607
     18 N2         -4.6823   -2.7483   -3.0229 N.pl3     1 <0>        -0.5265
     19 H1         -5.3599   -2.9856   -2.3706 H         1 <0>         0.4211
     20 C15        -5.8410   -3.6091   -5.0675 C.1       1 <0>         0.2739
     21 N3         -6.7023   -4.1088   -5.6143 N.1       1 <0>        -0.4008
     22 C16         0.7703   -0.4590   -1.2120 C.2       1 <0>        -0.1042
     23 C17         1.5516   -1.5982   -1.1615 C.2       1 <0>        -0.1367
     24 C18         2.2299   -1.9799   -2.2712 C.2       1 <0>        -0.1682
     25 S1          1.7705   -0.7106   -3.4396 S.3       1 <0>         0.0537
     26 C19         0.7011    0.2397   -2.3715 C.2       1 <0>        -0.1762
     27 H2          0.7659    2.0015   -0.1848 H         1 <0>         0.0804
     28 H3         -0.8044    1.7357   -0.9796 H         1 <0>         0.0808
     29 H4         -0.7151    1.8669    0.7933 H         1 <0>         0.0650
     30 H5         -1.1827   -0.8987   -2.1402 H         1 <0>         0.1450
     31 H6         -4.7795   -2.4084   -0.3803 H         1 <0>         0.1269
     32 H7         -3.9843   -1.6907    1.8135 H         1 <0>         0.1339
     33 H8         -2.5541   -0.6308    2.9974 H         1 <0>         0.4010
     34 H9          0.3627    1.4961    2.0823 H         1 <0>         0.0989
     35 H10         1.3380    0.3353    3.0053 H         1 <0>         0.1439
     36 H11        -1.8365   -1.5132   -4.0517 H         1 <0>         0.1516
     37 H12        -3.3432   -2.5357   -6.0051 H         1 <0>         0.1549
     38 H13         1.6208   -2.1754   -0.2512 H         1 <0>         0.1389
     39 H14         2.8798   -2.8308   -2.4120 H         1 <0>         0.1875
     40 H15         0.1444    1.1385   -2.5917 H         1 <0>         0.1903
@<TRIPOS>BOND
     1    1    2 1
     2    1   27 1
     3    1   28 1
     4    1   29 1
     5    2   13 1
     6    2    3 1
     7    2   22 1
     8    3    8 ar
     9    3    4 ar
    10    4    5 ar
    11    4   30 1
    12    5    6 ar
    13    5   14 1
    14    6    7 ar
    15    6   31 1
    16    7    8 ar
    17    7   32 1
    18    8    9 1
    19    9   10 am
    20    9   33 1
    21   10   11 2
    22   10   12 1
    23   12   13 1
    24   12   34 1
    25   12   35 1
    26   14   18 1
    27   14   15 2
    28   15   16 1
    29   15   36 1
    30   16   17 2
    31   16   37 1
    32   17   18 1
    33   17   20 1
    34   18   19 1
    35   20   21 3
    36   22   26 2
    37   22   23 1
    38   23   24 2
    39   23   38 1
    40   24   25 1
    41   24   39 1
    42   25   26 1
    43   26   40 1
@<TRIPOS>MOLECULE
CHEMBL490825__1
   39    42     0     0     0
SMALL
USER_CHARGES

@<TRIPOS>ATOM
      1 C1         -0.2020    1.5089   -0.0993 C.3       1 <0>        -0.1865
      2 C2          0.0021   -0.0041    0.0020 C.3       1 <0>         0.2262
      3 C3         -1.3421   -0.6635   -0.0208 C.ar      1 <0>        -0.1290
      4 C4         -1.7974   -1.0710   -1.2695 C.ar      1 <0>        -0.0882
      5 C5         -3.0299   -1.6982   -1.4174 C.ar      1 <0>         0.0373
      6 C6         -3.8207   -1.9202   -0.2870 C.ar      1 <0>        -0.0924
      7 C7         -3.3700   -1.5158    0.9421 C.ar      1 <0>        -0.1547
      8 C8         -2.1249   -0.8792    1.0967 C.ar      1 <0>         0.1334
      9 N1         -1.8081   -0.5213    2.3874 N.am      1 <0>        -0.6361
     10 C9         -0.7378   -0.0686    2.9839 C.2       1 <0>         0.4932
     11 O1         -0.7492   -0.0622    4.1967 O.2       1 <0>        -0.5537
     12 C10         0.4960    0.4403    2.3212 C.3       1 <0>         0.0496
     13 O2          0.7742   -0.2685    1.1352 O.3       1 <0>        -0.3519
     14 C11        -3.4972   -2.1236   -2.7524 C.2       1 <0>        -0.0186
     15 C12        -4.6954   -2.7464   -3.0272 C.2       1 <0>        -0.2353
     16 C13        -4.7474   -2.9761   -4.4014 C.2       1 <0>        -0.2025
     17 C14        -3.5766   -2.4888   -4.9477 C.2       1 <0>        -0.0253
     18 N2         -2.8178   -1.9618   -3.9269 N.2       1 <0>        -0.4853
     19 C15        -3.2174   -2.5205   -6.3336 C.1       1 <0>         0.3312
     20 N3         -2.9324   -2.5457   -7.4330 N.1       1 <0>        -0.5101
     21 C16         0.7703   -0.4590   -1.2120 C.2       1 <0>        -0.1033
     22 C17         1.5516   -1.5982   -1.1615 C.2       1 <0>        -0.1301
     23 C18         2.2299   -1.9799   -2.2712 C.2       1 <0>        -0.1797
     24 S1          1.7705   -0.7106   -3.4396 S.3       1 <0>         0.0490
     25 C19         0.7011    0.2397   -2.3715 C.2       1 <0>        -0.1598
     26 H1          0.7667    2.0013   -0.1843 H         1 <0>         0.0729
     27 H2         -0.8037    1.7362   -0.9793 H         1 <0>         0.0798
     28 H3         -0.7146    1.8669    0.7936 H         1 <0>         0.0617
     29 H4         -1.1827   -0.8978   -2.1405 H         1 <0>         0.1420
     30 H5         -4.7803   -2.4067   -0.3815 H         1 <0>         0.1280
     31 H6         -3.9851   -1.6897    1.8126 H         1 <0>         0.1198
     32 H7         -2.5548   -0.6306    2.9969 H         1 <0>         0.3951
     33 H8          0.3630    1.4955    2.0826 H         1 <0>         0.0921
     34 H9          1.3377    0.3342    3.0056 H         1 <0>         0.1353
     35 H10        -5.4569   -3.0091   -2.3078 H         1 <0>         0.0958
     36 H11        -5.5554   -3.4489   -4.9400 H         1 <0>         0.0961
     37 H12         1.6208   -2.1754   -0.2512 H         1 <0>         0.1351
     38 H13         2.8798   -2.8308   -2.4120 H         1 <0>         0.1827
     39 H14         0.1444    1.1385   -2.5917 H         1 <0>         0.1863
@<TRIPOS>BOND
     1    1    2 1
     2    1   26 1
     3    1   27 1
     4    1   28 1
     5    2   13 1
     6    2    3 1
     7    2   21 1
     8    3    8 ar
     9    3    4 ar
    10    4    5 ar
    11    4   29 1
    12    5    6 ar
    13    5   14 1
    14    6    7 ar
    15    6   30 1
    16    7    8 ar
    17    7   31 1
    18    8    9 1
    19    9   10 am
    20    9   32 1
    21   10   11 2
    22   10   12 1
    23   12   13 1
    24   12   33 1
    25   12   34 1
    26   14   18 1
    27   14   15 2
    28   15   16 1
    29   15   35 1
    30   16   17 2
    31   16   36 1
    32   17   18 1
    33   17   19 1
    34   19   20 3
    35   21   25 2
    36   21   22 1
    37   22   23 2
    38   22   37 1
    39   23   24 1
    40   23   38 1
    41   24   25 1
    42   25   39 1
@<TRIPOS>MOLECULE
CHEMBL433403
   39    42     0     0     0
SMALL
USER_CHARGES

@<TRIPOS>ATOM
      1 C1         -0.0184    1.5028    0.0103 C.3       1 <0>        -0.1171
      2 C2          0.0021   -0.0041    0.0020 C.2       1 <0>        -0.0576
      3 C3         -0.0943   -0.6658   -1.1441 C.2       1 <0>        -0.1729
      4 C4         -0.0912   -2.1709   -1.1767 C.3       1 <0>         0.2129
      5 N1          0.6708   -2.6953   -0.0361 N.pl3     1 <0>        -0.7347
      6 C5          0.4726   -2.1132    1.2167 C.ar      1 <0>         0.2538
      7 C6          0.1355   -0.7511    1.2687 C.ar      1 <0>        -0.1516
      8 C7         -0.0688   -0.1359    2.4982 C.ar      1 <0>         0.1765
      9 C8          0.0701   -0.8795    3.6744 C.ar      1 <0>        -0.1416
     10 C9          0.4114   -2.2291    3.6031 C.ar      1 <0>        -0.0157
     11 C10         0.6040   -2.8419    2.3853 C.ar      1 <0>        -0.1716
     12 C11         0.4851   -2.7542    5.0166 C.3       1 <0>        -0.0423
     13 C12         0.1559   -1.5861    5.9133 C.ar      1 <0>        -0.0686
     14 C13        -0.0865   -0.4847    5.0963 C.ar      1 <0>        -0.0506
     15 C14        -0.4167    0.7408    5.6781 C.ar      1 <0>        -0.0712
     16 C15        -0.5009    0.8520    7.0503 C.ar      1 <0>        -0.1482
     17 C16        -0.2584   -0.2487    7.8555 C.ar      1 <0>         0.1016
     18 C17         0.0697   -1.4680    7.2838 C.ar      1 <0>        -0.1326
     19 F1         -0.3417   -0.1337    9.1990 F         1 <0>        -0.1358
     20 F2         -0.3991    1.1728    2.5567 F         1 <0>        -0.1274
     21 C18         0.5515   -2.6494   -2.4801 C.3       1 <0>        -0.1526
     22 C19        -1.5310   -2.6834   -1.1046 C.3       1 <0>        -0.1589
     23 H1          0.8697    1.8754    0.5209 H         1 <0>         0.0688
     24 H2         -0.0294    1.8716   -1.0153 H         1 <0>         0.0656
     25 H3         -0.9101    1.8512    0.5314 H         1 <0>         0.0763
     26 H4         -0.1766   -0.1151   -2.0695 H         1 <0>         0.1267
     27 H5          1.2959   -3.4282   -0.1505 H         1 <0>         0.4068
     28 H6          0.8684   -3.8881    2.3436 H         1 <0>         0.1351
     29 H7         -0.2428   -3.5531    5.1585 H         1 <0>         0.1099
     30 H8          1.4899   -3.1191    5.2294 H         1 <0>         0.1100
     31 H9         -0.6065    1.6014    5.0538 H         1 <0>         0.1349
     32 H10        -0.7565    1.8008    7.4985 H         1 <0>         0.1403
     33 H11         0.2580   -2.3258    7.9124 H         1 <0>         0.1394
     34 H12         1.5762   -2.2820   -2.5363 H         1 <0>         0.0643
     35 H13         0.5544   -3.7391   -2.5051 H         1 <0>         0.0647
     36 H14        -0.0181   -2.2681   -3.3276 H         1 <0>         0.0760
     37 H15        -2.0955   -2.3020   -1.9555 H         1 <0>         0.0681
     38 H16        -1.5303   -3.7732   -1.1281 H         1 <0>         0.0618
     39 H17        -1.9929   -2.3403   -0.1789 H         1 <0>         0.0573
@<TRIPOS>BOND
     1    1    2 1
     2    1   23 1
     3    1   24 1
     4    1   25 1
     5    2    7 1
     6    2    3 2
     7    3    4 1
     8    3   26 1
     9    4    5 1
    10    4   21 1
    11    4   22 1
    12    5    6 1
    13    5   27 1
    14    6   11 ar
    15    6    7 ar
    16    7    8 ar
    17    8    9 ar
    18    8   20 1
    19    9   14 1
    20    9   10 ar
    21   10   11 ar
    22   10   12 1
    23   11   28 1
    24   12   13 1
    25   12   29 1
    26   12   30 1
    27   13   18 ar
    28   13   14 ar
    29   14   15 ar
    30   15   16 ar
    31   15   31 1
    32   16   17 ar
    33   16   32 1
    34   17   18 ar
    35   17   19 1
    36   18   33 1
    37   21   34 1
    38   21   35 1
    39   21   36 1
    40   22   37 1
    41   22   38 1
    42   22   39 1
@<TRIPOS>MOLECULE
CHEMBL487930
   41    44     0     0     0
SMALL
USER_CHARGES

@<TRIPOS>ATOM
      1 C1         -0.1198    1.5201   -0.0514 C.3       1 <0>        -0.1931
      2 C2          0.0021   -0.0041    0.0020 C.3       1 <0>         0.2568
      3 C3         -1.3742   -0.5896   -0.0688 C.ar      1 <0>        -0.1376
      4 C4         -1.8250   -0.9312   -1.3398 C.ar      1 <0>        -0.0650
      5 C5         -3.0833   -1.4844   -1.5321 C.ar      1 <0>        -0.0692
      6 C6         -3.9073   -1.7011   -0.4282 C.ar      1 <0>        -0.0638
      7 C7         -3.4627   -1.3634    0.8241 C.ar      1 <0>        -0.1576
      8 C8         -2.1900   -0.7999    1.0250 C.ar      1 <0>         0.1949
      9 N1         -1.8820   -0.5026    2.3339 N.am      1 <0>        -0.6465
     10 C9         -0.8017   -0.1276    2.9656 C.2       1 <0>         0.4966
     11 O1         -0.8377   -0.1606    4.1775 O.2       1 <0>        -0.5255
     12 C10         0.4706    0.3362    2.3440 C.3       1 <0>         0.0481
     13 O2          0.7354   -0.3467    1.1400 O.3       1 <0>        -0.3469
     14 C11        -3.5459   -1.8413   -2.8956 C.ar      1 <0>        -0.0347
     15 C12        -2.7146   -1.6277   -3.9939 C.ar      1 <0>        -0.0799
     16 C13        -3.1484   -1.9609   -5.2605 C.ar      1 <0>        -0.1338
     17 C14        -4.4085   -2.5069   -5.4424 C.ar      1 <0>         0.1099
     18 C15        -5.2393   -2.7209   -4.3534 C.ar      1 <0>        -0.0692
     19 C16        -4.8104   -2.3964   -3.0814 C.ar      1 <0>        -0.0770
     20 Cl1        -6.8176   -3.4048   -4.5881 Cl        1 <0>        -0.0434
     21 F1         -4.8292   -2.8312   -6.6846 F         1 <0>        -0.1239
     22 C17         0.7703   -0.4590   -1.2120 C.2       1 <0>        -0.1509
     23 C18         1.5839   -1.5338   -1.3540 C.2       1 <0>        -0.1198
     24 C19         2.1907   -1.7585   -2.5754 C.2       1 <0>        -0.1562
     25 C20         1.9542   -0.8975   -3.5952 C.2       1 <0>        -0.1651
     26 S1          0.8387    0.2733   -2.8388 S.3       1 <0>         0.0463
     27 H1          0.8751    1.9627   -0.1012 H         1 <0>         0.0828
     28 H2         -0.6902    1.8083   -0.9345 H         1 <0>         0.0813
     29 H3         -0.6312    1.8753    0.8432 H         1 <0>         0.0719
     30 H4         -1.1842   -0.7625   -2.1926 H         1 <0>         0.1404
     31 H5         -4.8892   -2.1316   -0.5588 H         1 <0>         0.1378
     32 H6         -4.1049   -1.5333    1.6756 H         1 <0>         0.1362
     33 H7         -2.6458   -0.5922    2.9250 H         1 <0>         0.4025
     34 H8          0.3984    1.4044    2.1391 H         1 <0>         0.1005
     35 H9          1.2912    0.1628    3.0400 H         1 <0>         0.1470
     36 H10        -1.7322   -1.2015   -3.8535 H         1 <0>         0.1412
     37 H11        -2.5045   -1.7955   -6.1117 H         1 <0>         0.1495
     38 H12        -5.4560   -2.5677   -2.2327 H         1 <0>         0.1470
     39 H13         1.7558   -2.2044   -0.5250 H         1 <0>         0.1394
     40 H14         2.8438   -2.6073   -2.7151 H         1 <0>         0.1387
     41 H15         2.3378   -0.9169   -4.6046 H         1 <0>         0.1902
@<TRIPOS>BOND
     1    1    2 1
     2    1   27 1
     3    1   28 1
     4    1   29 1
     5    2   13 1
     6    2    3 1
     7    2   22 1
     8    3    8 ar
     9    3    4 ar
    10    4    5 ar
    11    4   30 1
    12    5    6 ar
    13    5   14 1
    14    6    7 ar
    15    6   31 1
    16    7    8 ar
    17    7   32 1
    18    8    9 1
    19    9   10 am
    20    9   33 1
    21   10   11 2
    22   10   12 1
    23   12   13 1
    24   12   34 1
    25   12   35 1
    26   14   19 ar
    27   14   15 ar
    28   15   16 ar
    29   15   36 1
    30   16   17 ar
    31   16   37 1
    32   17   18 ar
    33   17   21 1
    34   18   19 ar
    35   18   20 1
    36   19   38 1
    37   22   26 1
    38   22   23 2
    39   23   24 1
    40   23   39 1
    41   24   25 2
    42   24   40 1
    43   25   26 1
    44   25   41 1
@<TRIPOS>MOLECULE
CHEMBL487930__1
   41    44     0     0     0
SMALL
USER_CHARGES

@<TRIPOS>ATOM
      1 C1         -0.0079    1.5180    0.1569 C.3       1 <0>        -0.1932
      2 C2          0.0021   -0.0041    0.0020 C.3       1 <0>         0.2568
      3 C3          0.5373   -0.3360   -1.3564 C.ar      1 <0>        -0.1374
      4 C4         -0.4116   -0.5014   -2.3601 C.ar      1 <0>        -0.0649
      5 C5         -0.0372   -0.8141   -3.6595 C.ar      1 <0>        -0.0692
      6 C6          1.3161   -0.9644   -3.9603 C.ar      1 <0>        -0.0638
      7 C7          2.2509   -0.7995   -2.9708 C.ar      1 <0>        -0.1576
      8 C8          1.8779   -0.4807   -1.6530 C.ar      1 <0>         0.1948
      9 N1          2.9231   -0.3369   -0.7678 N.am      1 <0>        -0.6465
     10 C9          3.0235   -0.2013    0.5276 C.2       1 <0>         0.4967
     11 O1          4.1327   -0.3146    1.0049 O.2       1 <0>        -0.5255
     12 C10         1.9095    0.0794    1.4766 C.3       1 <0>         0.0481
     13 O2          0.7156   -0.5500    1.0712 O.3       1 <0>        -0.3469
     14 C11        -1.0644   -0.9858   -4.7159 C.ar      1 <0>        -0.0347
     15 C12        -2.4150   -0.8281   -4.4096 C.ar      1 <0>        -0.0799
     16 C13        -3.3675   -0.9886   -5.3948 C.ar      1 <0>        -0.1338
     17 C14        -2.9837   -1.3068   -6.6873 C.ar      1 <0>         0.1098
     18 C15        -1.6417   -1.4652   -6.9970 C.ar      1 <0>        -0.0692
     19 C16        -0.6815   -1.2997   -6.0184 C.ar      1 <0>        -0.0770
     20 Cl1        -1.1673   -1.8644   -8.6185 Cl        1 <0>        -0.0434
     21 F1         -3.9199   -1.4635   -7.6487 F         1 <0>        -0.1239
     22 C17        -1.4202   -0.4959    0.0806 C.2       1 <0>        -0.1510
     23 C18        -1.8899   -1.6786    0.5475 C.2       1 <0>        -0.1198
     24 C19        -3.2514   -1.9159    0.5227 C.2       1 <0>        -0.1562
     25 C20        -4.0767   -0.9589    0.0323 C.2       1 <0>        -0.1652
     26 S1         -2.9245    0.3312   -0.4097 S.3       1 <0>         0.0464
     27 H1          1.0164    1.8906    0.1512 H         1 <0>         0.0719
     28 H2         -0.5612    1.9637   -0.6697 H         1 <0>         0.0813
     29 H3         -0.4860    1.7842    1.0996 H         1 <0>         0.0828
     30 H4         -1.4589   -0.3848   -2.1238 H         1 <0>         0.1404
     31 H5          1.6258   -1.2093   -4.9655 H         1 <0>         0.1378
     32 H6          3.2977   -0.9173   -3.2091 H         1 <0>         0.1362
     33 H7          3.7867   -0.3365   -1.2095 H         1 <0>         0.4025
     34 H8          2.1851   -0.2834    2.4669 H         1 <0>         0.1470
     35 H9          1.7459    1.1559    1.5257 H         1 <0>         0.1005
     36 H10        -2.7156   -0.5808   -3.4022 H         1 <0>         0.1413
     37 H11        -4.4141   -0.8665   -5.1578 H         1 <0>         0.1495
     38 H12         0.3642   -1.4184   -6.2610 H         1 <0>         0.1470
     39 H13        -1.2105   -2.4244    0.9327 H         1 <0>         0.1394
     40 H14        -3.6517   -2.8500    0.8883 H         1 <0>         0.1387
     41 H15        -5.1524   -0.9719   -0.0626 H         1 <0>         0.1902
@<TRIPOS>BOND
     1    1    2 1
     2    1   27 1
     3    1   28 1
     4    1   29 1
     5    2   13 1
     6    2    3 1
     7    2   22 1
     8    3    8 ar
     9    3    4 ar
    10    4    5 ar
    11    4   30 1
    12    5    6 ar
    13    5   14 1
    14    6    7 ar
    15    6   31 1
    16    7    8 ar
    17    7   32 1
    18    8    9 1
    19    9   10 am
    20    9   33 1
    21   10   11 2
    22   10   12 1
    23   12   13 1
    24   12   34 1
    25   12   35 1
    26   14   19 ar
    27   14   15 ar
    28   15   16 ar
    29   15   36 1
    30   16   17 ar
    31   16   37 1
    32   17   18 ar
    33   17   21 1
    34   18   19 ar
    35   18   20 1
    36   19   38 1
    37   22   26 1
    38   22   23 2
    39   23   24 1
    40   23   39 1
    41   24   25 2
    42   24   40 1
    43   25   26 1
    44   25   41 1
@<TRIPOS>MOLECULE
CHEMBL411086
   73    79     0     0     0
SMALL
USER_CHARGES

@<TRIPOS>ATOM
      1 C1          1.7869    1.4931    1.1259 C.3       1 <0>        -0.1485
      2 C2          1.4285    0.0382    0.8165 C.3       1 <0>        -0.0742
      3 H1          2.1341   -0.3755    0.0960 H         1 <0>         0.0739
      4 C3         -0.0125   -0.0465    0.2575 C.3       1 <0>        -0.1097
      5 C4         -0.8004   -0.8589    1.2831 C.3       1 <0>        -0.0784
      6 H2         -1.2156   -0.1956    2.0419 H         1 <0>         0.0776
      7 C5         -1.8982   -1.7438    0.7124 C.3       1 <0>        -0.0457
      8 H3         -1.4678   -2.3912   -0.0517 H         1 <0>         0.0966
      9 C6         -2.9731   -0.8784    0.0767 C.3       1 <0>        -0.1114
     10 C7         -4.2536   -1.6724   -0.1792 C.3       1 <0>        -0.0965
     11 C8         -4.7176   -2.2369    1.1401 C.2       1 <0>         0.0246
     12 C9         -6.0207   -2.2181    1.4980 C.2       1 <0>        -0.2465
     13 C10        -6.4203   -2.6609    2.7707 C.2       1 <0>         0.3866
     14 O1         -7.6035   -2.7822    3.0170 O.2       1 <0>        -0.4690
     15 C11        -5.4053   -2.9876    3.8332 C.3       1 <0>        -0.1660
     16 C12        -4.1842   -3.6584    3.1979 C.3       1 <0>        -0.0821
     17 C13        -3.7161   -2.8191    2.0327 C.2       1 <0>        -0.1238
     18 C14        -2.4257   -2.5986    1.8366 C.2       1 <0>        -0.0495
     19 C15        -1.4647   -3.2946    2.7798 C.3       1 <0>        -0.0314
     20 H4         -2.0044   -3.6100    3.6728 H         1 <0>         0.1076
     21 C16        -0.3198   -2.3546    3.1871 C.3       1 <0>        -0.1013
     22 C17         0.2763   -1.7789    1.9172 C.3       1 <0>        -0.0492
     23 C18         1.4440   -0.8031    2.1206 C.3       1 <0>        -0.1199
     24 H5          1.2692   -0.1694    2.9900 H         1 <0>         0.0990
     25 C19         2.7459   -1.5498    2.2572 C.2       1 <0>         0.3906
     26 O2          2.8959   -2.6093    1.6975 O.2       1 <0>        -0.4379
     27 C20         3.8606   -0.9742    3.0922 C.3       1 <0>        -0.2242
     28 C21         5.2778   -1.0381    2.5193 C.3       1 <0>        -0.1495
     29 C22         4.8801   -1.9519    3.6801 C.3       1 <0>        -0.1517
     30 C23         0.6544   -2.9093    0.9579 C.3       1 <0>        -0.1521
     31 C24        -0.8890   -4.5072    2.0948 C.ar      1 <0>        -0.0329
     32 C25         0.2182   -5.1403    2.6302 C.ar      1 <0>        -0.1198
     33 C26         0.7499   -6.2509    2.0068 C.ar      1 <0>        -0.0662
     34 C27         0.1689   -6.7346    0.8360 C.ar      1 <0>        -0.0582
     35 C28        -0.9468   -6.0930    0.3013 C.ar      1 <0>        -0.0924
     36 C29        -1.4732   -4.9862    0.9360 C.ar      1 <0>        -0.1266
     37 C30         0.7361   -7.9275    0.1612 C.ar      1 <0>         0.1263
     38 C31         0.1578   -8.4080   -1.0139 C.ar      1 <0>         0.0563
     39 N1          0.6666   -9.4695   -1.6105 N.ar      1 <0>        -0.4329
     40 C32         1.7225  -10.0768   -1.0960 C.ar      1 <0>         0.0402
     41 C33         2.2990   -9.6037    0.0698 C.ar      1 <0>         0.0600
     42 N2          1.8005   -8.5391    0.6711 N.ar      1 <0>        -0.4352
     43 H6          2.7880    1.5373    1.5548 H         1 <0>         0.0567
     44 H7          1.7595    2.0775    0.2063 H         1 <0>         0.0591
     45 H8          1.0686    1.9009    1.8372 H         1 <0>         0.0589
     46 H9         -0.4384    0.9521    0.1595 H         1 <0>         0.0712
     47 H10        -0.0137   -0.5541   -0.7071 H         1 <0>         0.0686
     48 H11        -3.1981   -0.0444    0.7414 H         1 <0>         0.0688
     49 H12        -2.6014   -0.4873   -0.8704 H         1 <0>         0.0774
     50 H13        -5.0200   -1.0146   -0.5891 H         1 <0>         0.0857
     51 H14        -4.0511   -2.4845   -0.8774 H         1 <0>         0.0887
     52 H15        -6.7621   -1.8591    0.7995 H         1 <0>         0.1349
     53 H16        -5.0953   -2.0695    4.3324 H         1 <0>         0.0991
     54 H17        -5.8504   -3.6631    4.5637 H         1 <0>         0.0950
     55 H18        -3.3855   -3.7365    3.9356 H         1 <0>         0.0933
     56 H19        -4.4564   -4.6532    2.8453 H         1 <0>         0.0824
     57 H20        -0.7064   -1.5453    3.8066 H         1 <0>         0.0727
     58 H21         0.4408   -2.9114    3.7345 H         1 <0>         0.0727
     59 H22         3.5978   -0.1013    3.6898 H         1 <0>         0.1215
     60 H23         5.4040   -1.4964    1.5384 H         1 <0>         0.0999
     61 H24         5.9477   -0.2070    2.7398 H         1 <0>         0.1037
     62 H25         5.2883   -1.7220    4.6643 H         1 <0>         0.1029
     63 H26         4.7446   -3.0114    3.4629 H         1 <0>         0.1036
     64 H27         1.2852   -2.5143    0.1616 H         1 <0>         0.0481
     65 H28         1.1976   -3.6815    1.5025 H         1 <0>         0.0837
     66 H29        -0.2503   -3.3374    0.5262 H         1 <0>         0.0684
     67 H30         0.6676   -4.7646    3.5375 H         1 <0>         0.1256
     68 H31         1.6148   -6.7441    2.4253 H         1 <0>         0.1329
     69 H32        -1.4008   -6.4633   -0.6059 H         1 <0>         0.1257
     70 H33        -2.3402   -4.4906    0.5248 H         1 <0>         0.1284
     71 H34        -0.7048   -7.9125   -1.4343 H         1 <0>         0.1696
     72 H35         2.1362  -10.9452   -1.5871 H         1 <0>         0.1715
     73 H36         3.1609  -10.1038    0.4863 H         1 <0>         0.1728
@<TRIPOS>BOND
     1    1    2 1
     2    1   43 1
     3    1   44 1
     4    1   45 1
     5    2    3 1
     6    2   23 1
     7    2    4 1
     8    4    5 1
     9    4   46 1
    10    4   47 1
    11    5    6 1
    12    5   22 1
    13    5    7 1
    14    7    8 1
    15    7   18 1
    16    7    9 1
    17    9   10 1
    18    9   48 1
    19    9   49 1
    20   10   11 1
    21   10   50 1
    22   10   51 1
    23   11   17 1
    24   11   12 2
    25   12   13 1
    26   12   52 1
    27   13   14 2
    28   13   15 1
    29   15   16 1
    30   15   53 1
    31   15   54 1
    32   16   17 1
    33   16   55 1
    34   16   56 1
    35   17   18 2
    36   18   19 1
    37   19   20 1
    38   19   21 1
    39   19   31 1
    40   21   22 1
    41   21   57 1
    42   21   58 1
    43   22   23 1
    44   22   30 1
    45   23   24 1
    46   23   25 1
    47   25   26 2
    48   25   27 1
    49   27   29 1
    50   27   28 1
    51   27   59 1
    52   28   29 1
    53   28   60 1
    54   28   61 1
    55   29   62 1
    56   29   63 1
    57   30   64 1
    58   30   65 1
    59   30   66 1
    60   31   36 ar
    61   31   32 ar
    62   32   33 ar
    63   32   67 1
    64   33   34 ar
    65   33   68 1
    66   34   35 ar
    67   34   37 1
    68   35   36 ar
    69   35   69 1
    70   36   70 1
    71   37   42 ar
    72   37   38 ar
    73   38   39 ar
    74   38   71 1
    75   39   40 ar
    76   40   41 ar
    77   40   72 1
    78   41   42 ar
    79   41   73 1
@<TRIPOS>MOLECULE
CHEMBL51343
   40    41     0     0     0
SMALL
USER_CHARGES

@<TRIPOS>ATOM
      1 C1         -0.0184    1.5028    0.0103 C.3       1 <0>        -0.1369
      2 C2          0.0021   -0.0041    0.0020 C.2       1 <0>        -0.0294
      3 C3          0.0049   -0.6290   -1.1690 C.2       1 <0>        -0.2493
      4 C4          0.0149   -2.0943   -1.2336 C.2       1 <0>         0.3667
      5 O1         -0.1885   -2.6775   -2.2779 O.2       1 <0>        -0.4394
      6 C5          0.2874   -2.8548    0.0479 C.3       1 <0>         0.1081
      7 C6         -0.4955   -2.1559    1.1686 C.3       1 <0>        -0.0401
      8 C7          0.0243   -0.7245    1.3173 C.3       1 <0>        -0.0984
      9 C8         -0.2924   -2.9118    2.4832 C.3       1 <0>        -0.1423
     10 C9         -1.9838   -2.1313    0.8148 C.3       1 <0>        -0.1485
     11 C10         1.7845   -2.8255    0.3623 C.3       1 <0>        -0.1125
     12 C11         2.5564   -3.3538   -0.8192 C.ar      1 <0>        -0.0456
     13 C12         2.8331   -4.7048   -0.9159 C.ar      1 <0>        -0.1162
     14 C13         3.5411   -5.1895   -1.9997 C.ar      1 <0>        -0.0480
     15 C14         3.9721   -4.3233   -2.9871 C.ar      1 <0>        -0.0481
     16 C15         3.6946   -2.9725   -2.8909 C.ar      1 <0>        -0.0462
     17 C16         2.9828   -2.4884   -1.8092 C.ar      1 <0>        -0.1122
     18 N1          4.7310   -4.8421   -4.1471 N.pl3     1 <0>         0.0322
     19 O2          4.9741   -6.0235   -4.2311 O.2       1 <0>        -0.1551
     20 O3          5.1079   -4.0846   -5.0107 O.3       1 <0>        -0.1563
     21 O4         -0.1562   -4.2066   -0.0852 O.3       1 <0>        -0.5310
     22 H1          1.0042    1.8801    0.0026 H         1 <0>         0.0829
     23 H2         -0.5455    1.8639   -0.8728 H         1 <0>         0.0748
     24 H3         -0.5286    1.8543    0.9071 H         1 <0>         0.0754
     25 H4         -0.0007   -0.0533   -2.0828 H         1 <0>         0.1362
     26 H5          1.0468   -0.7490    1.6941 H         1 <0>         0.0969
     27 H6         -0.6049   -0.1895    2.0286 H         1 <0>         0.0969
     28 H7          0.7680   -2.9244    2.7350 H         1 <0>         0.0596
     29 H8         -0.8487   -2.4147    3.2779 H         1 <0>         0.0636
     30 H9         -0.6518   -3.9350    2.3733 H         1 <0>         0.0724
     31 H10        -2.3472   -3.1527    0.7010 H         1 <0>         0.0709
     32 H11        -2.5385   -1.6350    1.6111 H         1 <0>         0.0658
     33 H12        -2.1262   -1.5888   -0.1198 H         1 <0>         0.0546
     34 H13         2.0925   -1.8004    0.5685 H         1 <0>         0.1004
     35 H14         1.9848   -3.4475    1.2347 H         1 <0>         0.1080
     36 H15         2.4964   -5.3815   -0.1445 H         1 <0>         0.1523
     37 H16         3.7579   -6.2448   -2.0749 H         1 <0>         0.1569
     38 H17         4.0316   -2.2957   -3.6621 H         1 <0>         0.1551
     39 H18         2.7628   -1.4336   -1.7359 H         1 <0>         0.1442
     40 H19         0.2766   -4.6941   -0.7994 H         1 <0>         0.3814
@<TRIPOS>BOND
     1    1    2 1
     2    1   22 1
     3    1   23 1
     4    1   24 1
     5    2    8 1
     6    2    3 2
     7    3    4 1
     8    3   25 1
     9    4    5 2
    10    4    6 1
    11    6    7 1
    12    6   11 1
    13    6   21 1
    14    7    8 1
    15    7    9 1
    16    7   10 1
    17    8   26 1
    18    8   27 1
    19    9   28 1
    20    9   29 1
    21    9   30 1
    22   10   31 1
    23   10   32 1
    24   10   33 1
    25   11   12 1
    26   11   34 1
    27   11   35 1
    28   12   17 ar
    29   12   13 ar
    30   13   14 ar
    31   13   36 1
    32   14   15 ar
    33   14   37 1
    34   15   16 ar
    35   15   18 1
    36   16   17 ar
    37   16   38 1
    38   17   39 1
    39   18   19 2
    40   18   20 1
    41   21   40 1
@<TRIPOS>MOLECULE
CHEMBL51343__1
   40    41     0     0     0
SMALL
USER_CHARGES

@<TRIPOS>ATOM
      1 C1         -0.0184    1.5028    0.0103 C.3       1 <0>        -0.1380
      2 C2          0.0021   -0.0041    0.0020 C.2       1 <0>        -0.0159
      3 C3          0.0049   -0.6290   -1.1690 C.2       1 <0>        -0.2550
      4 C4          0.0149   -2.0943   -1.2336 C.2       1 <0>         0.3674
      5 O1         -0.1885   -2.6775   -2.2779 O.2       1 <0>        -0.4398
      6 C5          0.2874   -2.8548    0.0479 C.3       1 <0>         0.1101
      7 C6         -0.4955   -2.1559    1.1686 C.3       1 <0>        -0.0433
      8 C7          0.0243   -0.7245    1.3173 C.3       1 <0>        -0.0906
      9 C8         -0.2924   -2.9118    2.4832 C.3       1 <0>        -0.1433
     10 C9         -1.9838   -2.1313    0.8148 C.3       1 <0>        -0.1566
     11 C10        -0.1876   -4.3021   -0.0946 C.3       1 <0>        -0.1102
     12 C11         0.5491   -4.9630   -1.2311 C.ar      1 <0>        -0.0541
     13 C12         0.0358   -4.9061   -2.5134 C.ar      1 <0>        -0.0574
     14 C13         0.7115   -5.5124   -3.5559 C.ar      1 <0>        -0.0684
     15 C14         1.9008   -6.1751   -3.3162 C.ar      1 <0>        -0.0454
     16 C15         2.4145   -6.2312   -2.0340 C.ar      1 <0>        -0.0640
     17 C16         1.7409   -5.6213   -0.9923 C.ar      1 <0>        -0.1188
     18 N1          2.6238   -6.8250   -4.4323 N.pl3     1 <0>         0.0327
     19 O2          2.1743   -6.7763   -5.5535 O.2       1 <0>        -0.1589
     20 O3          3.6639   -7.4046   -4.2226 O.3       1 <0>        -0.1600
     21 O4          1.6857   -2.8274    0.3416 O.3       1 <0>        -0.5283
     22 H1          1.0042    1.8801    0.0026 H         1 <0>         0.0831
     23 H2         -0.5455    1.8639   -0.8728 H         1 <0>         0.0740
     24 H3         -0.5286    1.8543    0.9071 H         1 <0>         0.0746
     25 H4         -0.0007   -0.0533   -2.0828 H         1 <0>         0.1335
     26 H5          1.0468   -0.7490    1.6941 H         1 <0>         0.1020
     27 H6         -0.6049   -0.1895    2.0286 H         1 <0>         0.0882
     28 H7          0.7680   -2.9244    2.7350 H         1 <0>         0.0699
     29 H8         -0.8487   -2.4147    3.2779 H         1 <0>         0.0635
     30 H9         -0.6518   -3.9350    2.3733 H         1 <0>         0.0621
     31 H10        -2.3472   -3.1527    0.7010 H         1 <0>         0.0660
     32 H11        -2.5385   -1.6350    1.6111 H         1 <0>         0.0737
     33 H12        -2.1262   -1.5888   -0.1198 H         1 <0>         0.0600
     34 H13         0.0116   -4.8427    0.8307 H         1 <0>         0.1019
     35 H14        -1.2581   -4.3147   -0.2994 H         1 <0>         0.0966
     36 H15        -0.8933   -4.3884   -2.7007 H         1 <0>         0.1570
     37 H16         0.3102   -5.4685   -4.5576 H         1 <0>         0.1514
     38 H17         3.3434   -6.7492   -1.8467 H         1 <0>         0.1527
     39 H18         2.1442   -5.6619    0.0088 H         1 <0>         0.1481
     40 H19         2.2395   -3.2243   -0.3446 H         1 <0>         0.3797
@<TRIPOS>BOND
     1    1    2 1
     2    1   22 1
     3    1   23 1
     4    1   24 1
     5    2    8 1
     6    2    3 2
     7    3    4 1
     8    3   25 1
     9    4    5 2
    10    4    6 1
    11    6    7 1
    12    6   11 1
    13    6   21 1
    14    7    8 1
    15    7    9 1
    16    7   10 1
    17    8   26 1
    18    8   27 1
    19    9   28 1
    20    9   29 1
    21    9   30 1
    22   10   31 1
    23   10   32 1
    24   10   33 1
    25   11   12 1
    26   11   34 1
    27   11   35 1
    28   12   17 ar
    29   12   13 ar
    30   13   14 ar
    31   13   36 1
    32   14   15 ar
    33   14   37 1
    34   15   16 ar
    35   15   18 1
    36   16   17 ar
    37   16   38 1
    38   17   39 1
    39   18   19 2
    40   18   20 1
    41   21   40 1
@<TRIPOS>MOLECULE
CHEMBL219069
   50    52     0     0     0
SMALL
USER_CHARGES

@<TRIPOS>ATOM
      1 C1          0.9053   -0.1437    0.8315 C.3       1 <0>        -0.1484
      2 C2         -0.3780   -0.3650    0.0283 C.3       1 <0>        -0.0240
      3 C3         -0.1444   -1.4598   -1.0147 C.3       1 <0>        -0.1367
      4 C4         -1.5035   -0.7921    0.9727 C.3       1 <0>        -0.1480
      5 C5         -1.3844   -0.0218    2.2892 C.3       1 <0>         0.0776
      6 C6         -2.4305   -0.5386    3.2789 C.3       1 <0>         0.0629
      7 N1         -2.3749    0.2568    4.5079 N.pl3     1 <0>        -0.4990
      8 C7         -1.4469   -0.0438    5.4483 C.2       1 <0>         0.1839
      9 C8         -1.3355    0.6439    6.6036 C.2       1 <0>        -0.3117
     10 C9         -2.2071    1.7253    6.8724 C.2       1 <0>         0.4174
     11 O1         -2.1228    2.3598    7.9111 O.2       1 <0>        -0.4970
     12 C10        -3.2198    2.0600    5.8558 C.ar      1 <0>        -0.1968
     13 C11        -3.2634    1.2952    4.6766 C.ar      1 <0>         0.2070
     14 C12        -4.2096    1.5985    3.7023 C.ar      1 <0>        -0.1914
     15 C13        -5.0846    2.6441    3.9025 C.ar      1 <0>        -0.0503
     16 C14        -5.0327    3.3986    5.0661 C.ar      1 <0>        -0.1609
     17 C15        -4.1183    3.1102    6.0410 C.ar      1 <0>        -0.0280
     18 C16        -1.6185    1.4681    2.0313 C.3       1 <0>         0.4613
     19 F1         -2.8656    1.6456    1.4225 F         1 <0>        -0.1681
     20 F2         -1.5896    2.1618    3.2459 F         1 <0>        -0.1683
     21 F3         -0.6146    1.9591    1.1898 F         1 <0>        -0.1449
     22 O2         -0.0775   -0.2110    2.8353 O.3       1 <0>        -0.5207
     23 C17        -0.7635    0.9159   -0.6657 C.ar      1 <0>        -0.0517
     24 C18        -2.0892    1.1673   -0.9662 C.ar      1 <0>        -0.1410
     25 C19        -2.4428    2.3423   -1.6028 C.ar      1 <0>        -0.1081
     26 C20        -1.4708    3.2662   -1.9383 C.ar      1 <0>        -0.1309
     27 C21        -0.1452    3.0152   -1.6370 C.ar      1 <0>        -0.1132
     28 C22         0.2079    1.8421   -0.9966 C.ar      1 <0>        -0.1138
     29 H1          1.7347    0.0388    0.1482 H         1 <0>         0.0448
     30 H2          0.7791    0.7173    1.4879 H         1 <0>         0.0958
     31 H3          1.1163   -1.0295    1.4306 H         1 <0>         0.0576
     32 H4          0.0485   -2.4067   -0.5106 H         1 <0>         0.0606
     33 H5         -1.0291   -1.5568   -1.6440 H         1 <0>         0.0579
     34 H6          0.7138   -1.1957   -1.6327 H         1 <0>         0.0623
     35 H7         -2.4669   -0.5758    0.5110 H         1 <0>         0.0975
     36 H8         -1.4267   -1.8615    1.1692 H         1 <0>         0.0980
     37 H9         -3.4228   -0.4540    2.8359 H         1 <0>         0.1179
     38 H10        -2.2247   -1.5832    3.5126 H         1 <0>         0.1191
     39 H11        -0.7705   -0.8659    5.2661 H         1 <0>         0.1582
     40 H12        -0.5801    0.3683    7.3245 H         1 <0>         0.1502
     41 H13        -4.2576    1.0174    2.7933 H         1 <0>         0.1351
     42 H14        -5.8183    2.8790    3.1457 H         1 <0>         0.1312
     43 H15        -5.7258    4.2148    5.2065 H         1 <0>         0.1303
     44 H16        -4.0838    3.7009    6.9445 H         1 <0>         0.1379
     45 H17         0.1399   -1.1341    3.0242 H         1 <0>         0.3901
     46 H18        -2.8486    0.4455   -0.7040 H         1 <0>         0.1198
     47 H19        -3.4784    2.5384   -1.8382 H         1 <0>         0.1187
     48 H20        -1.7470    4.1838   -2.4363 H         1 <0>         0.1184
     49 H21         0.6142    3.7369   -1.8995 H         1 <0>         0.1192
     50 H22         1.2430    1.6478   -0.7578 H         1 <0>         0.1224
@<TRIPOS>BOND
     1    1    2 1
     2    1   29 1
     3    1   30 1
     4    1   31 1
     5    2    3 1
     6    2    4 1
     7    2   23 1
     8    3   32 1
     9    3   33 1
    10    3   34 1
    11    4    5 1
    12    4   35 1
    13    4   36 1
    14    5    6 1
    15    5   18 1
    16    5   22 1
    17    6    7 1
    18    6   37 1
    19    6   38 1
    20    7   13 1
    21    7    8 1
    22    8    9 2
    23    8   39 1
    24    9   10 1
    25    9   40 1
    26   10   11 2
    27   10   12 1
    28   12   17 ar
    29   12   13 ar
    30   13   14 ar
    31   14   15 ar
    32   14   41 1
    33   15   16 ar
    34   15   42 1
    35   16   17 ar
    36   16   43 1
    37   17   44 1
    38   18   19 1
    39   18   20 1
    40   18   21 1
    41   22   45 1
    42   23   28 ar
    43   23   24 ar
    44   24   25 ar
    45   24   46 1
    46   25   26 ar
    47   25   47 1
    48   26   27 ar
    49   26   48 1
    50   27   28 ar
    51   27   49 1
    52   28   50 1
@<TRIPOS>MOLECULE
CHEMBL219069__1
   50    52     0     0     0
SMALL
USER_CHARGES

@<TRIPOS>ATOM
      1 C1          0.0387   -0.2416   -1.5636 C.3       1 <0>        -0.1363
      2 C2         -0.0925    0.3014   -0.1392 C.3       1 <0>        -0.0235
      3 C3          0.3315    1.7712   -0.1126 C.3       1 <0>        -0.1530
      4 C4         -1.5470    0.1818    0.3201 C.3       1 <0>        -0.1514
      5 C5         -1.8110    1.1855    1.4443 C.3       1 <0>         0.0784
      6 C6         -3.2840    1.1182    1.8527 C.3       1 <0>         0.0633
      7 N1         -3.5367    2.0793    2.9291 N.pl3     1 <0>        -0.5009
      8 C7         -3.3851    1.6847    4.2164 C.2       1 <0>         0.1909
      9 C8         -3.5994    2.5135    5.2592 C.2       1 <0>        -0.3194
     10 C9         -3.9990    3.8513    5.0318 C.2       1 <0>         0.4184
     11 O1         -4.1978    4.6165    5.9611 O.2       1 <0>        -0.4969
     12 C10        -4.1665    4.2900    3.6352 C.ar      1 <0>        -0.1962
     13 C11        -3.9170    3.3631    2.6076 C.ar      1 <0>         0.2082
     14 C12        -4.0652    3.7593    1.2818 C.ar      1 <0>        -0.1793
     15 C13        -4.4476    5.0516    0.9942 C.ar      1 <0>        -0.0534
     16 C14        -4.6869    5.9631    2.0129 C.ar      1 <0>        -0.1604
     17 C15        -4.5582    5.5912    3.3225 C.ar      1 <0>        -0.0262
     18 C16        -0.9317    0.8448    2.6491 C.3       1 <0>         0.4610
     19 F1          0.4143    1.0126    2.3065 F         1 <0>        -0.1421
     20 F2         -1.2510    1.6936    3.7144 F         1 <0>        -0.1656
     21 F3         -1.1543   -0.4834    3.0282 F         1 <0>        -0.1664
     22 O2         -1.5031    2.5041    0.9876 O.3       1 <0>        -0.5164
     23 C17         0.7932   -0.4937    0.7851 C.ar      1 <0>        -0.0580
     24 C18         0.2519   -1.4957    1.5687 C.ar      1 <0>        -0.1438
     25 C19         1.0644   -2.2250    2.4165 C.ar      1 <0>        -0.1116
     26 C20         2.4181   -1.9528    2.4804 C.ar      1 <0>        -0.1295
     27 C21         2.9595   -0.9514    1.6962 C.ar      1 <0>        -0.1137
     28 C22         2.1478   -0.2249    0.8451 C.ar      1 <0>        -0.1152
     29 H1          1.0548   -0.0780   -1.9226 H         1 <0>         0.0623
     30 H2         -0.1804   -1.3093   -1.5671 H         1 <0>         0.0577
     31 H3         -0.6648    0.2758   -2.2159 H         1 <0>         0.0604
     32 H4         -0.3943    2.3688   -0.6643 H         1 <0>         0.0586
     33 H5          0.3774    2.1175    0.9199 H         1 <0>         0.0972
     34 H6          1.3134    1.8746   -0.5745 H         1 <0>         0.0446
     35 H7         -2.2113    0.3921   -0.5181 H         1 <0>         0.0982
     36 H8         -1.7310   -0.8288    0.6848 H         1 <0>         0.0999
     37 H9         -3.9104    1.3610    0.9943 H         1 <0>         0.1215
     38 H10        -3.5188    0.1124    2.2010 H         1 <0>         0.1157
     39 H11        -3.0814    0.6676    4.4153 H         1 <0>         0.1538
     40 H12        -3.4661    2.1548    6.2691 H         1 <0>         0.1499
     41 H13        -3.8809    3.0574    0.4820 H         1 <0>         0.1252
     42 H14        -4.5620    5.3584   -0.0350 H         1 <0>         0.1319
     43 H15        -4.9855    6.9720    1.7695 H         1 <0>         0.1302
     44 H16        -4.7467    6.3053    4.1104 H         1 <0>         0.1379
     45 H17        -2.0242    2.7875    0.2239 H         1 <0>         0.3889
     46 H18        -0.8057   -1.7084    1.5188 H         1 <0>         0.1282
     47 H19         0.6414   -3.0074    3.0293 H         1 <0>         0.1188
     48 H20         3.0528   -2.5221    3.1434 H         1 <0>         0.1186
     49 H21         4.0171   -0.7385    1.7463 H         1 <0>         0.1194
     50 H22         2.5714    0.5549    0.2297 H         1 <0>         0.1201
@<TRIPOS>BOND
     1    1    2 1
     2    1   29 1
     3    1   30 1
     4    1   31 1
     5    2    3 1
     6    2    4 1
     7    2   23 1
     8    3   32 1
     9    3   33 1
    10    3   34 1
    11    4    5 1
    12    4   35 1
    13    4   36 1
    14    5    6 1
    15    5   18 1
    16    5   22 1
    17    6    7 1
    18    6   37 1
    19    6   38 1
    20    7   13 1
    21    7    8 1
    22    8    9 2
    23    8   39 1
    24    9   10 1
    25    9   40 1
    26   10   11 2
    27   10   12 1
    28   12   17 ar
    29   12   13 ar
    30   13   14 ar
    31   14   15 ar
    32   14   41 1
    33   15   16 ar
    34   15   42 1
    35   16   17 ar
    36   16   43 1
    37   17   44 1
    38   18   19 1
    39   18   20 1
    40   18   21 1
    41   22   45 1
    42   23   28 ar
    43   23   24 ar
    44   24   25 ar
    45   24   46 1
    46   25   26 ar
    47   25   47 1
    48   26   27 ar
    49   26   48 1
    50   27   28 ar
    51   27   49 1
    52   28   50 1
@<TRIPOS>MOLECULE
CHEMBL327551
   37    40     0     0     0
SMALL
USER_CHARGES

@<TRIPOS>ATOM
      1 C1         -0.0184    1.5028    0.0103 C.3       1 <0>        -0.1205
      2 C2          0.0021   -0.0041    0.0020 C.2       1 <0>        -0.0531
      3 C3          0.0057   -0.6648   -1.1495 C.2       1 <0>        -0.1816
      4 C4          0.0102   -2.1701   -1.1808 C.3       1 <0>         0.2139
      5 N1          0.6711   -2.6936    0.0216 N.pl3     1 <0>        -0.7353
      6 C5          0.3646   -2.1111    1.2535 C.ar      1 <0>         0.2511
      7 C6          0.0243   -0.7522    1.2736 C.ar      1 <0>        -0.1192
      8 C7         -0.2911   -0.1329    2.4864 C.ar      1 <0>         0.1373
      9 C8         -0.2483   -0.8910    3.6646 C.ar      1 <0>        -0.1680
     10 C9          0.1019   -2.2385    3.6279 C.ar      1 <0>        -0.0183
     11 C10         0.3977   -2.8451    2.4285 C.ar      1 <0>        -0.1898
     12 C11        -0.6266    0.0365    4.7485 C.ar      1 <0>        -0.1064
     13 C12        -0.7702   -0.0944    6.1257 C.ar      1 <0>        -0.0705
     14 C13        -1.1478    0.9963    6.8806 C.ar      1 <0>        -0.1344
     15 C14        -1.3831    2.2176    6.2693 C.ar      1 <0>        -0.0905
     16 C15        -1.2432    2.3582    4.9045 C.ar      1 <0>        -0.1108
     17 C16        -0.8633    1.2705    4.1275 C.ar      1 <0>         0.0696
     18 O1         -0.6542    1.1292    2.8001 O.3       1 <0>        -0.1949
     19 C17        -1.4308   -2.6816   -1.2321 C.3       1 <0>        -0.1586
     20 C18         0.7623   -2.6502   -2.4237 C.3       1 <0>        -0.1522
     21 H1          1.0042    1.8801    0.0026 H         1 <0>         0.0698
     22 H2         -0.5455    1.8639   -0.8728 H         1 <0>         0.0679
     23 H3         -0.5286    1.8543    0.9071 H         1 <0>         0.0771
     24 H4          0.0049   -0.1139   -2.0784 H         1 <0>         0.1249
     25 H5          1.3044   -3.4259   -0.0382 H         1 <0>         0.4063
     26 H6          0.1334   -2.8111    4.5431 H         1 <0>         0.1317
     27 H7          0.6679   -3.8905    2.4054 H         1 <0>         0.1346
     28 H8         -0.5871   -1.0463    6.6019 H         1 <0>         0.1286
     29 H9         -1.2608    0.8984    7.9502 H         1 <0>         0.1322
     30 H10        -1.6791    3.0669    6.8671 H         1 <0>         0.1372
     31 H11        -1.4294    3.3148    4.4390 H         1 <0>         0.1338
     32 H12        -1.9200   -2.3004   -2.1285 H         1 <0>         0.0672
     33 H13        -1.4289   -3.7714   -1.2548 H         1 <0>         0.0608
     34 H14        -1.9701   -2.3375   -0.3496 H         1 <0>         0.0569
     35 H15         1.7883   -2.2836   -2.3917 H         1 <0>         0.0637
     36 H16         0.7664   -3.7399   -2.4476 H         1 <0>         0.0640
     37 H17         0.2680   -2.2690   -3.3173 H         1 <0>         0.0753
@<TRIPOS>BOND
     1    1    2 1
     2    1   21 1
     3    1   22 1
     4    1   23 1
     5    2    7 1
     6    2    3 2
     7    3    4 1
     8    3   24 1
     9    4    5 1
    10    4   19 1
    11    4   20 1
    12    5    6 1
    13    5   25 1
    14    6   11 ar
    15    6    7 ar
    16    7    8 ar
    17    8   18 1
    18    8    9 ar
    19    9   10 ar
    20    9   12 1
    21   10   11 ar
    22   10   26 1
    23   11   27 1
    24   12   17 ar
    25   12   13 ar
    26   13   14 ar
    27   13   28 1
    28   14   15 ar
    29   14   29 1
    30   15   16 ar
    31   15   30 1
    32   16   17 ar
    33   16   31 1
    34   17   18 1
    35   19   32 1
    36   19   33 1
    37   19   34 1
    38   20   35 1
    39   20   36 1
    40   20   37 1
@<TRIPOS>MOLECULE
CHEMBL551784
   43    45     0     0     0
SMALL
USER_CHARGES

@<TRIPOS>ATOM
      1 C1         -0.1083    1.4167    0.0793 C.3       1 <0>        -0.1688
      2 C2         -0.0794   -0.1049   -0.0783 C.3       1 <0>         0.2587
      3 C3          0.6534   -0.7167    1.0878 C.2       1 <0>        -0.0364
      4 C4          0.1306   -1.0386    2.2941 C.2       1 <0>        -0.0457
      5 N1          1.1485   -1.5560    3.0201 N.pl3     1 <0>        -0.2930
      6 N2          2.2102   -1.5432    2.2925 N.2       1 <0>        -0.0858
      7 N3          1.9471   -1.0540    1.1323 N.2       1 <0>        -0.2442
      8 C5          1.0579   -2.0461    4.3977 C.3       1 <0>         0.0801
      9 N4          0.6077   -0.4538   -1.3242 N.pl3     1 <0>        -0.6517
     10 C6         -0.1223   -1.1323   -2.3980 C.3       1 <0>         0.1776
     11 C7         -0.6932   -0.1069   -3.3432 C.ar      1 <0>        -0.1012
     12 C8         -2.0084    0.2980   -3.2117 C.ar      1 <0>        -0.0952
     13 C9         -2.5322    1.2385   -4.0786 C.ar      1 <0>        -0.1171
     14 C10        -1.7412    1.7750   -5.0777 C.ar      1 <0>        -0.1051
     15 C11        -0.4263    1.3710   -5.2102 C.ar      1 <0>        -0.1118
     16 C12         0.1003    0.4337   -4.3391 C.ar      1 <0>        -0.0204
     17 Cl1         1.7539   -0.0694   -4.5007 Cl        1 <0>        -0.0596
     18 C13         1.9540   -0.1406   -1.4878 C.ar      1 <0>         0.2464
     19 C14         2.9054   -1.1569   -1.5116 C.ar      1 <0>        -0.0948
     20 C15         4.2374   -0.8519   -1.6731 C.ar      1 <0>        -0.0493
     21 C16         4.6360    0.4811   -1.8136 C.ar      1 <0>        -0.0365
     22 C17         3.6778    1.5004   -1.7894 C.ar      1 <0>         0.0168
     23 C18         2.3449    1.1864   -1.6329 C.ar      1 <0>        -0.1256
     24 Cl2         4.1662    3.1572   -1.9627 Cl        1 <0>        -0.0591
     25 C19         6.0215    0.8022   -1.9814 C.1       1 <0>         0.2531
     26 N5          7.1205    1.0569   -2.1145 N.1       1 <0>        -0.4089
     27 H1          0.9052    1.7849    0.2381 H         1 <0>         0.0644
     28 H2         -0.5215    1.8676   -0.8230 H         1 <0>         0.0697
     29 H3         -0.7294    1.6816    0.9350 H         1 <0>         0.0650
     30 H4         -1.0999   -0.4867   -0.1069 H         1 <0>         0.1006
     31 H5         -0.8929   -0.9081    2.6131 H         1 <0>         0.1884
     32 H6          0.8070   -3.1068    4.3903 H         1 <0>         0.0919
     33 H7          2.0155   -1.9027    4.8981 H         1 <0>         0.1019
     34 H8          0.2836   -1.4934    4.9298 H         1 <0>         0.0988
     35 H9          0.5577   -1.7885   -2.9413 H         1 <0>         0.0848
     36 H10        -0.9324   -1.7227   -1.9699 H         1 <0>         0.0851
     37 H11        -2.6268   -0.1209   -2.4317 H         1 <0>         0.1293
     38 H12        -3.5599    1.5543   -3.9757 H         1 <0>         0.1275
     39 H13        -2.1512    2.5096   -5.7550 H         1 <0>         0.1299
     40 H14         0.1914    1.7899   -5.9908 H         1 <0>         0.1317
     41 H15         2.5974   -2.1864   -1.4027 H         1 <0>         0.1322
     42 H16         4.9744   -1.6412   -1.6910 H         1 <0>         0.1378
     43 H17         1.6037    1.9718   -1.6184 H         1 <0>         0.1388
@<TRIPOS>BOND
     1    1    2 1
     2    1   27 1
     3    1   28 1
     4    1   29 1
     5    2    3 1
     6    2    9 1
     7    2   30 1
     8    3    7 1
     9    3    4 2
    10    4    5 1
    11    4   31 1
    12    5    6 1
    13    5    8 1
    14    6    7 2
    15    8   32 1
    16    8   33 1
    17    8   34 1
    18    9   10 1
    19    9   18 1
    20   10   11 1
    21   10   35 1
    22   10   36 1
    23   11   16 ar
    24   11   12 ar
    25   12   13 ar
    26   12   37 1
    27   13   14 ar
    28   13   38 1
    29   14   15 ar
    30   14   39 1
    31   15   16 ar
    32   15   40 1
    33   16   17 1
    34   18   23 ar
    35   18   19 ar
    36   19   20 ar
    37   19   41 1
    38   20   21 ar
    39   20   42 1
    40   21   22 ar
    41   21   25 1
    42   22   23 ar
    43   22   24 1
    44   23   43 1
    45   25   26 3
@<TRIPOS>MOLECULE
CHEMBL551784__1
   43    45     0     0     0
SMALL
USER_CHARGES

@<TRIPOS>ATOM
      1 C1          0.3012    1.3061    0.0172 C.3       1 <0>        -0.1782
      2 C2          0.1301   -0.2118    0.1040 C.3       1 <0>         0.2338
      3 C3          0.7734   -0.7183    1.3692 C.2       1 <0>        -0.0477
      4 C4          2.0783   -1.0325    1.5446 C.2       1 <0>        -0.0397
      5 N1          2.1985   -1.4399    2.8293 N.pl3     1 <0>        -0.2917
      6 N2          1.0389   -1.3727    3.3840 N.2       1 <0>        -0.0833
      7 N3          0.1684   -0.9404    2.5414 N.2       1 <0>        -0.2420
      8 C5          3.4357   -1.8819    3.4774 C.3       1 <0>         0.0790
      9 N4         -1.2970   -0.5426    0.1156 N.pl3     1 <0>        -0.5980
     10 C6         -1.8570   -1.4076   -0.9257 C.3       1 <0>         0.1562
     11 C7         -2.4063   -0.5581   -2.0427 C.ar      1 <0>        -0.1019
     12 C8         -3.7573   -0.2692   -2.0913 C.ar      1 <0>        -0.0923
     13 C9         -4.2612    0.5099   -3.1157 C.ar      1 <0>        -0.1102
     14 C10        -3.4146    1.0008   -4.0924 C.ar      1 <0>        -0.1016
     15 C11        -2.0639    0.7127   -4.0449 C.ar      1 <0>        -0.1102
     16 C12        -1.5579   -0.0626   -3.0164 C.ar      1 <0>        -0.0203
     17 Cl1         0.1399   -0.4195   -2.9524 Cl        1 <0>        -0.0684
     18 C13        -2.1209   -0.0349    1.1160 C.ar      1 <0>         0.2681
     19 C14        -1.5760    0.7350    2.1402 C.ar      1 <0>        -0.1483
     20 C15        -2.3868    1.2389    3.1312 C.ar      1 <0>        -0.0195
     21 C16        -3.7604    0.9771    3.1096 C.ar      1 <0>        -0.0810
     22 C17        -4.3052    0.2031    2.0791 C.ar      1 <0>         0.0507
     23 C18        -3.4874   -0.2934    1.0869 C.ar      1 <0>        -0.1956
     24 Cl2        -6.0095   -0.1260    2.0468 Cl        1 <0>        -0.0576
     25 C19        -4.6070    1.4995    4.1396 C.1       1 <0>         0.2587
     26 N5         -5.2787    1.9139    4.9567 N.1       1 <0>        -0.4202
     27 H1          1.3537    1.5608    0.1410 H         1 <0>         0.0702
     28 H2         -0.0454    1.6558   -0.9552 H         1 <0>         0.0718
     29 H3         -0.2830    1.7831    0.8042 H         1 <0>         0.0789
     30 H4          0.6047   -0.6808   -0.7579 H         1 <0>         0.1131
     31 H5          2.8650   -0.9709    0.8073 H         1 <0>         0.1898
     32 H6          3.9370   -1.0245    3.9266 H         1 <0>         0.0933
     33 H7          3.1995   -2.6115    4.2520 H         1 <0>         0.1033
     34 H8          4.0912   -2.3386    2.7359 H         1 <0>         0.0996
     35 H9         -1.0752   -2.0595   -1.3157 H         1 <0>         0.0944
     36 H10        -2.6580   -2.0138   -0.5026 H         1 <0>         0.0932
     37 H11        -4.4191   -0.6527   -1.3289 H         1 <0>         0.1341
     38 H12        -5.3168    0.7350   -3.1534 H         1 <0>         0.1316
     39 H13        -3.8090    1.6092   -4.8928 H         1 <0>         0.1330
     40 H14        -1.4027    1.0959   -4.8080 H         1 <0>         0.1341
     41 H15        -0.5152    0.9368    2.1570 H         1 <0>         0.1453
     42 H16        -1.9628    1.8356    3.9252 H         1 <0>         0.1358
     43 H17        -3.9072   -0.8873    0.2886 H         1 <0>         0.1399
@<TRIPOS>BOND
     1    1    2 1
     2    1   27 1
     3    1   28 1
     4    1   29 1
     5    2    3 1
     6    2    9 1
     7    2   30 1
     8    3    7 1
     9    3    4 2
    10    4    5 1
    11    4   31 1
    12    5    6 1
    13    5    8 1
    14    6    7 2
    15    8   32 1
    16    8   33 1
    17    8   34 1
    18    9   10 1
    19    9   18 1
    20   10   11 1
    21   10   35 1
    22   10   36 1
    23   11   16 ar
    24   11   12 ar
    25   12   13 ar
    26   12   37 1
    27   13   14 ar
    28   13   38 1
    29   14   15 ar
    30   14   39 1
    31   15   16 ar
    32   15   40 1
    33   16   17 1
    34   18   23 ar
    35   18   19 ar
    36   19   20 ar
    37   19   41 1
    38   20   21 ar
    39   20   42 1
    40   21   22 ar
    41   21   25 1
    42   22   23 ar
    43   22   24 1
    44   23   43 1
    45   25   26 3
@<TRIPOS>MOLECULE
CHEMBL370891
   37    40     0     0     0
SMALL
USER_CHARGES

@<TRIPOS>ATOM
      1 C1         -0.0171    1.3778    0.0103 C.ar      1 <0>        -0.1074
      2 C2          0.7559    1.3738   -1.1363 C.ar      1 <0>        -0.1061
      3 C3          1.9627    0.7024   -1.1549 C.ar      1 <0>        -0.0993
      4 C4          2.3995    0.0309   -0.0207 C.ar      1 <0>         0.1351
      5 C5          1.6210    0.0367    1.1290 C.ar      1 <0>        -0.1097
      6 C6          0.4152    0.7101    1.1414 C.ar      1 <0>        -0.1072
      7 N1          3.6228   -0.6515   -0.0366 N.am      1 <0>        -0.4931
      8 C7          3.7879   -2.0336    0.0473 C.ar      1 <0>         0.0945
      9 C8          2.8999   -3.0894    0.1629 C.ar      1 <0>        -0.0825
     10 C9          3.3822   -4.3939    0.2264 C.ar      1 <0>        -0.0436
     11 C10         4.7557   -4.6337    0.1740 C.ar      1 <0>        -0.0890
     12 C11         5.6388   -3.5815    0.0594 C.ar      1 <0>        -0.0996
     13 C12         5.1625   -2.2794   -0.0052 C.ar      1 <0>         0.1040
     14 N2          5.7882   -1.0405   -0.1192 N.am      1 <0>        -0.6400
     15 C13         4.8398   -0.0854   -0.1412 C.2       1 <0>         0.6859
     16 O1          5.0508    1.1090   -0.2380 O.2       1 <0>        -0.5373
     17 C14         2.4351   -5.5295    0.3504 C.ar      1 <0>        -0.0055
     18 C15         2.9162   -6.8329    0.4197 C.ar      1 <0>        -0.0738
     19 C16         2.0216   -7.8958    0.5366 C.ar      1 <0>         0.0127
     20 C17         0.6480   -7.6462    0.5834 C.ar      1 <0>        -0.1085
     21 C18         0.1771   -6.3483    0.5140 C.ar      1 <0>         0.1119
     22 C19         1.0628   -5.2909    0.4033 C.ar      1 <0>        -0.1202
     23 F1         -1.1521   -6.1112    0.5596 F         1 <0>        -0.1281
     24 C20         2.5096   -9.2402    0.6080 C.1       1 <0>         0.2483
     25 N3          2.8967  -10.3067    0.6647 N.1       1 <0>        -0.3955
     26 H1         -0.9583    1.9073    0.0237 H         1 <0>         0.1312
     27 H2          0.4155    1.8960   -2.0183 H         1 <0>         0.1332
     28 H3          2.5659    0.6993   -2.0508 H         1 <0>         0.1271
     29 H4          1.9579   -0.4849    2.0126 H         1 <0>         0.1289
     30 H5         -0.1908    0.7150    2.0353 H         1 <0>         0.1335
     31 H6          1.8372   -2.9018    0.2041 H         1 <0>         0.1369
     32 H7          5.1279   -5.6463    0.2238 H         1 <0>         0.1418
     33 H8          6.7014   -3.7703    0.0194 H         1 <0>         0.1403
     34 H9          3.9791   -7.0209    0.3828 H         1 <0>         0.1462
     35 H10        -0.0468   -8.4681    0.6736 H         1 <0>         0.1488
     36 H11         0.6896   -4.2786    0.3539 H         1 <0>         0.1470
     37 H12         6.7450   -0.8914   -0.1766 H         1 <0>         0.4391
@<TRIPOS>BOND
     1    1    6 ar
     2    1    2 ar
     3    1   26 1
     4    2    3 ar
     5    2   27 1
     6    3    4 ar
     7    3   28 1
     8    4    5 ar
     9    4    7 1
    10    5    6 ar
    11    5   29 1
    12    6   30 1
    13    7   15 am
    14    7    8 1
    15    8   13 ar
    16    8    9 ar
    17    9   10 ar
    18    9   31 1
    19   10   11 ar
    20   10   17 1
    21   11   12 ar
    22   11   32 1
    23   12   13 ar
    24   12   33 1
    25   13   14 1
    26   14   15 am
    27   14   37 1
    28   15   16 2
    29   17   22 ar
    30   17   18 ar
    31   18   19 ar
    32   18   34 1
    33   19   20 ar
    34   19   24 1
    35   20   21 ar
    36   20   35 1
    37   21   22 ar
    38   21   23 1
    39   22   36 1
    40   24   25 3
@<TRIPOS>MOLECULE
CHEMBL1163602
   42    44     0     0     0
SMALL
USER_CHARGES

@<TRIPOS>ATOM
      1 C1         -0.0169    1.3928    0.0097 C.ar      1 <0>        -0.0813
      2 C2          1.1655    2.0978    0.0022 C.ar      1 <0>        -0.0603
      3 C3          2.3864    1.4149   -0.0131 C.ar      1 <0>        -0.1445
      4 C4          2.4042    0.0161   -0.0207 C.ar      1 <0>        -0.0747
      5 C5          1.2207   -0.6870   -0.0132 C.ar      1 <0>        -0.0825
      6 C6          0.0021   -0.0041    0.0020 C.ar      1 <0>         0.0089
      7 C7         -1.2285   -0.7364    0.0098 C.1       1 <0>         0.2419
      8 N1         -2.2047   -1.3173    0.0159 N.1       1 <0>        -0.3955
      9 C8          3.6516    2.1678   -0.0216 C.2       1 <0>         0.3915
     10 O1          3.6356    3.3802   -0.0154 O.2       1 <0>        -0.4275
     11 C9          4.9664    1.4316   -0.0381 C.3       1 <0>        -0.1722
     12 C10         6.1161    2.4412   -0.0442 C.3       1 <0>         0.2148
     13 C11         7.4262    1.7097   -0.1844 C.2       1 <0>        -0.1473
     14 C12         8.0610    1.6365   -1.4101 C.2       1 <0>        -0.1547
     15 C13         9.2382    0.9709   -1.5019 C.2       1 <0>        -0.1644
     16 S1          9.4828    0.4196    0.1784 S.3       1 <0>         0.0488
     17 C14         8.0024    1.1184    0.8906 C.2       1 <0>        -0.1542
     18 N2          6.1101    3.1957    1.2115 N.pl3     1 <0>        -0.7152
     19 C15         6.6748    4.4722    1.2619 C.ar      1 <0>         0.2792
     20 C16         7.2374    5.0301    0.1209 C.ar      1 <0>        -0.1911
     21 C17         7.7944    6.2927    0.1741 C.ar      1 <0>        -0.0047
     22 C18         7.7926    7.0014    1.3616 C.ar      1 <0>        -0.1119
     23 C19         7.2334    6.4491    2.4993 C.ar      1 <0>        -0.0049
     24 C20         6.6699    5.1891    2.4518 C.ar      1 <0>        -0.1952
     25 N3          8.3910    8.3541    1.4150 N.pl3     1 <0>         0.0453
     26 O2          8.8806    8.8382    0.4212 O.2       1 <0>        -0.1748
     27 O3          8.3901    8.9749    2.4524 O.3       1 <0>        -0.1747
     28 H1         -0.9594    1.9198    0.0260 H         1 <0>         0.1419
     29 H2          1.1507    3.1776    0.0077 H         1 <0>         0.1457
     30 H3          3.3462   -0.5121   -0.0329 H         1 <0>         0.1438
     31 H4          1.2343   -1.7669   -0.0194 H         1 <0>         0.1421
     32 H5          5.0411    0.8014    0.8481 H         1 <0>         0.1112
     33 H6          5.0238    0.8103   -0.9318 H         1 <0>         0.1227
     34 H7          5.9921    3.1280   -0.8814 H         1 <0>         0.1003
     35 H8          7.6254    2.1024   -2.2816 H         1 <0>         0.1358
     36 H9          9.8653    0.8143   -2.3672 H         1 <0>         0.1879
     37 H10         7.6554    1.0793    1.9126 H         1 <0>         0.1817
     38 H11         5.7139    2.8088    2.0080 H         1 <0>         0.4043
     39 H12         7.2394    4.4769   -0.8067 H         1 <0>         0.1412
     40 H13         8.2323    6.7268   -0.7125 H         1 <0>         0.1498
     41 H14         7.2339    7.0051    3.4251 H         1 <0>         0.1508
     42 H15         6.2297    4.7599    3.3397 H         1 <0>         0.1420
@<TRIPOS>BOND
     1    1    6 ar
     2    1    2 ar
     3    1   28 1
     4    2    3 ar
     5    2   29 1
     6    3    4 ar
     7    3    9 1
     8    4    5 ar
     9    4   30 1
    10    5    6 ar
    11    5   31 1
    12    6    7 1
    13    7    8 3
    14    9   10 2
    15    9   11 1
    16   11   12 1
    17   11   32 1
    18   11   33 1
    19   12   13 1
    20   12   18 1
    21   12   34 1
    22   13   17 2
    23   13   14 1
    24   14   15 2
    25   14   35 1
    26   15   16 1
    27   15   36 1
    28   16   17 1
    29   17   37 1
    30   18   19 1
    31   18   38 1
    32   19   24 ar
    33   19   20 ar
    34   20   21 ar
    35   20   39 1
    36   21   22 ar
    37   21   40 1
    38   22   23 ar
    39   22   25 1
    40   23   24 ar
    41   23   41 1
    42   24   42 1
    43   25   26 2
    44   25   27 1
@<TRIPOS>MOLECULE
CHEMBL1163602__1
   42    44     0     0     0
SMALL
USER_CHARGES

@<TRIPOS>ATOM
      1 C1         -0.0169    1.3928    0.0097 C.ar      1 <0>        -0.0813
      2 C2          1.1655    2.0978    0.0022 C.ar      1 <0>        -0.0602
      3 C3          2.3864    1.4149   -0.0131 C.ar      1 <0>        -0.1445
      4 C4          2.4042    0.0161   -0.0207 C.ar      1 <0>        -0.0747
      5 C5          1.2207   -0.6870   -0.0132 C.ar      1 <0>        -0.0825
      6 C6          0.0021   -0.0041    0.0020 C.ar      1 <0>         0.0089
      7 C7         -1.2285   -0.7364    0.0098 C.1       1 <0>         0.2419
      8 N1         -2.2047   -1.3173    0.0159 N.1       1 <0>        -0.3955
      9 C8          3.6516    2.1678   -0.0216 C.2       1 <0>         0.3915
     10 O1          3.6356    3.3802   -0.0154 O.2       1 <0>        -0.4275
     11 C9          4.9664    1.4316   -0.0381 C.3       1 <0>        -0.1723
     12 C10         6.1161    2.4412   -0.0442 C.3       1 <0>         0.2149
     13 C11         7.4286    1.7084    0.0632 C.2       1 <0>        -0.1472
     14 C12         8.0820    1.6142    1.2777 C.2       1 <0>        -0.1549
     15 C13         9.2609    0.9481    1.3399 C.2       1 <0>        -0.1643
     16 S1          9.4803    0.4269   -0.3535 S.3       1 <0>         0.0486
     17 C14         7.9832    1.1272   -1.0285 C.2       1 <0>        -0.1542
     18 N2          6.0858    3.2083   -1.2919 N.pl3     1 <0>        -0.7151
     19 C15         6.6495    4.4852   -1.3405 C.ar      1 <0>         0.2793
     20 C16         7.2444    5.0271   -0.2082 C.ar      1 <0>        -0.1912
     21 C17         7.8013    6.2898   -0.2599 C.ar      1 <0>        -0.0047
     22 C18         7.7671    7.0147   -1.4370 C.ar      1 <0>        -0.1120
     23 C19         7.1757    6.4783   -2.5661 C.ar      1 <0>        -0.0049
     24 C20         6.6216    5.2140   -2.5228 C.ar      1 <0>        -0.1953
     25 N3          8.3645    8.3678   -1.4885 N.pl3     1 <0>         0.0453
     26 O2          8.8816    8.8383   -0.5021 O.2       1 <0>        -0.1748
     27 O3          8.3354    9.0027   -2.5170 O.3       1 <0>        -0.1747
     28 H1         -0.9594    1.9198    0.0260 H         1 <0>         0.1419
     29 H2          1.1507    3.1776    0.0077 H         1 <0>         0.1457
     30 H3          3.3462   -0.5121   -0.0329 H         1 <0>         0.1438
     31 H4          1.2343   -1.7669   -0.0194 H         1 <0>         0.1421
     32 H5          5.0411    0.8014    0.8481 H         1 <0>         0.1227
     33 H6          5.0238    0.8103   -0.9318 H         1 <0>         0.1112
     34 H7          6.0084    3.1196    0.8021 H         1 <0>         0.1003
     35 H8          7.6597    2.0649    2.1637 H         1 <0>         0.1359
     36 H9          9.9014    0.7774    2.1925 H         1 <0>         0.1878
     37 H10         7.6155    1.0965   -2.0435 H         1 <0>         0.1817
     38 H11         5.6742    2.8293   -2.0843 H         1 <0>         0.4043
     39 H12         7.2711    4.4617    0.7116 H         1 <0>         0.1412
     40 H13         8.2636    6.7119    0.6202 H         1 <0>         0.1498
     41 H14         7.1504    7.0471   -3.4838 H         1 <0>         0.1508
     42 H15         6.1635    4.7939   -3.4061 H         1 <0>         0.1420
@<TRIPOS>BOND
     1    1    6 ar
     2    1    2 ar
     3    1   28 1
     4    2    3 ar
     5    2   29 1
     6    3    4 ar
     7    3    9 1
     8    4    5 ar
     9    4   30 1
    10    5    6 ar
    11    5   31 1
    12    6    7 1
    13    7    8 3
    14    9   10 2
    15    9   11 1
    16   11   12 1
    17   11   32 1
    18   11   33 1
    19   12   13 1
    20   12   18 1
    21   12   34 1
    22   13   17 2
    23   13   14 1
    24   14   15 2
    25   14   35 1
    26   15   16 1
    27   15   36 1
    28   16   17 1
    29   17   37 1
    30   18   19 1
    31   18   38 1
    32   19   24 ar
    33   19   20 ar
    34   20   21 ar
    35   20   39 1
    36   21   22 ar
    37   21   40 1
    38   22   23 ar
    39   22   25 1
    40   23   24 ar
    41   23   41 1
    42   24   42 1
    43   25   26 2
    44   25   27 1
@<TRIPOS>MOLECULE
CHEMBL285139
   38    41     0     0     0
SMALL
USER_CHARGES

@<TRIPOS>ATOM
      1 C1         -0.0168    1.3892    0.0097 C.ar      1 <0>        -0.0814
      2 C2          1.1638    2.0987    0.0022 C.ar      1 <0>        -0.1151
      3 C3          2.3870    1.4296   -0.0129 C.ar      1 <0>         0.1079
      4 C4          2.3985    0.0379   -0.0206 C.ar      1 <0>        -0.1045
      5 C5          1.2242   -0.6763   -0.0135 C.ar      1 <0>        -0.0636
      6 C6          0.0021   -0.0041    0.0020 C.ar      1 <0>        -0.0316
      7 C7         -1.2704   -0.7681    0.0103 C.2       1 <0>        -0.0995
      8 C8         -2.4917   -0.1141    0.0204 C.2       1 <0>        -0.0653
      9 C9         -3.6105   -0.9266    0.0270 C.2       1 <0>        -0.1568
     10 S1         -2.8946   -2.5583    0.0188 S.3       1 <0>         0.2912
     11 C10        -1.2672   -2.1437    0.0024 C.2       1 <0>        -0.2261
     12 C11        -4.9926   -0.5521    0.0378 C.1       1 <0>         0.2902
     13 N1         -6.0890   -0.2550    0.0463 N.1       1 <0>        -0.3909
     14 C12         3.8504   -0.3694   -0.0359 C.3       1 <0>        -0.0103
     15 C13         4.1689   -1.1658   -1.2974 C.3       1 <0>        -0.0926
     16 C14         3.3739   -2.4737   -1.2929 C.3       1 <0>        -0.1254
     17 C15         3.7411   -3.2882   -0.0508 C.3       1 <0>        -0.1234
     18 C16         3.3950   -2.4871    1.2060 C.3       1 <0>        -0.1255
     19 C17         4.1909   -1.1796    1.2110 C.3       1 <0>        -0.0926
     20 C18         4.6080    0.9372   -0.0355 C.2       1 <0>         0.2681
     21 N2          3.6926    1.9221   -0.0220 N.pl3     1 <0>        -0.5889
     22 S2          6.1970    1.1154   -0.0484 S.2       1 <0>        -0.3765
     23 H1         -0.9603    1.9146    0.0260 H         1 <0>         0.1375
     24 H2          1.1420    3.1785    0.0078 H         1 <0>         0.1325
     25 H3          1.2477   -1.7561   -0.0195 H         1 <0>         0.1413
     26 H4         -2.5653    0.9633    0.0233 H         1 <0>         0.1535
     27 H5         -0.4138   -2.8055   -0.0095 H         1 <0>         0.1959
     28 H6          3.8978   -0.5792   -2.1752 H         1 <0>         0.0655
     29 H7          5.2354   -1.3893   -1.3259 H         1 <0>         0.0889
     30 H8          2.3071   -2.2506   -1.2790 H         1 <0>         0.0685
     31 H9          3.6136   -3.0478   -2.1880 H         1 <0>         0.0725
     32 H10         3.1811   -4.2234   -0.0511 H         1 <0>         0.0669
     33 H11         4.8093   -3.5046   -0.0610 H         1 <0>         0.0693
     34 H12         2.3282   -2.2633    1.2121 H         1 <0>         0.0686
     35 H13         3.6492   -3.0708    2.0907 H         1 <0>         0.0725
     36 H14         5.2575   -1.4039    1.2181 H         1 <0>         0.0889
     37 H15         3.9356   -0.6026    2.0998 H         1 <0>         0.0655
     38 H16         3.9144    2.8664   -0.0190 H         1 <0>         0.4251
@<TRIPOS>BOND
     1    1    6 ar
     2    1    2 ar
     3    1   23 1
     4    2    3 ar
     5    2   24 1
     6    3   21 1
     7    3    4 ar
     8    4    5 ar
     9    4   14 1
    10    5    6 ar
    11    5   25 1
    12    6    7 1
    13    7   11 2
    14    7    8 1
    15    8    9 2
    16    8   26 1
    17    9   10 1
    18    9   12 1
    19   10   11 1
    20   11   27 1
    21   12   13 3
    22   14   19 1
    23   14   15 1
    24   14   20 1
    25   15   16 1
    26   15   28 1
    27   15   29 1
    28   16   17 1
    29   16   30 1
    30   16   31 1
    31   17   18 1
    32   17   32 1
    33   17   33 1
    34   18   19 1
    35   18   34 1
    36   18   35 1
    37   19   36 1
    38   19   37 1
    39   20   21 1
    40   20   22 2
    41   21   38 1
@<TRIPOS>MOLECULE
CHEMBL551782
   43    45     0     0     0
SMALL
USER_CHARGES

@<TRIPOS>ATOM
      1 C1         -0.8120    1.6672    0.2315 C.3       1 <0>        -0.0657
      2 C2         -0.5339    0.1888    0.1416 C.2       1 <0>         0.0569
      3 N1         -1.3871   -0.8038    0.1863 N.2       1 <0>        -0.5032
      4 C3         -0.9875   -2.0564    0.0936 C.2       1 <0>         0.0565
      5 C4          0.3459   -2.2679   -0.0498 C.2       1 <0>        -0.2326
      6 S1          0.9478   -0.5868   -0.0479 S.3       1 <0>         0.1009
      7 C5         -1.9659   -3.2015    0.1451 C.3       1 <0>         0.2431
      8 C6         -2.3465   -3.6115   -1.2790 C.3       1 <0>        -0.1626
      9 N2         -3.1681   -2.7843    0.8709 N.pl3     1 <0>        -0.6410
     10 C7         -4.0377   -1.7460    0.3124 C.3       1 <0>         0.1814
     11 C8         -5.1709   -2.3922   -0.4421 C.ar      1 <0>        -0.0970
     12 C9         -5.1020   -2.5202   -1.8168 C.ar      1 <0>        -0.0959
     13 C10        -6.1413   -3.1129   -2.5089 C.ar      1 <0>        -0.1181
     14 C11        -7.2504   -3.5779   -1.8269 C.ar      1 <0>        -0.1069
     15 C12        -7.3205   -3.4505   -0.4526 C.ar      1 <0>        -0.1130
     16 C13        -6.2778   -2.8624    0.2414 C.ar      1 <0>        -0.0235
     17 Cl1        -6.3622   -2.7079    1.9685 Cl        1 <0>        -0.0624
     18 C14        -3.4841   -3.3745    2.0912 C.ar      1 <0>         0.2347
     19 C15        -3.8694   -4.7117    2.1367 C.ar      1 <0>        -0.1318
     20 C16        -4.1827   -5.2992    3.3409 C.ar      1 <0>        -0.0426
     21 C17        -4.1140   -4.5518    4.5209 C.ar      1 <0>        -0.0382
     22 C18        -3.7266   -3.2082    4.4722 C.ar      1 <0>         0.0193
     23 C19        -3.4088   -2.6285    3.2628 C.ar      1 <0>        -0.1257
     24 Cl2        -3.6399   -2.2748    5.9333 Cl        1 <0>        -0.0527
     25 C20        -4.4399   -5.1599    5.7758 C.1       1 <0>         0.2498
     26 N3         -4.6984   -5.6423    6.7713 N.1       1 <0>        -0.4021
     27 H1          0.1251    2.2186    0.1545 H         1 <0>         0.0834
     28 H2         -1.4750    1.9623   -0.5818 H         1 <0>         0.0907
     29 H3         -1.2873    1.8901    1.1867 H         1 <0>         0.0910
     30 H4          0.8910   -3.1956   -0.1431 H         1 <0>         0.1937
     31 H5         -1.5079   -4.0480    0.6567 H         1 <0>         0.0967
     32 H6         -2.6852   -2.7348   -1.8312 H         1 <0>         0.0646
     33 H7         -1.4780   -4.0418   -1.7776 H         1 <0>         0.0653
     34 H8         -3.1475   -4.3499   -1.2427 H         1 <0>         0.0697
     35 H9         -4.4406   -1.1359    1.1209 H         1 <0>         0.0753
     36 H10        -3.4620   -1.1162   -0.3659 H         1 <0>         0.1054
     37 H11        -4.2360   -2.1568   -2.3501 H         1 <0>         0.1299
     38 H12        -6.0871   -3.2124   -3.5830 H         1 <0>         0.1265
     39 H13        -8.0623   -4.0406   -2.3683 H         1 <0>         0.1292
     40 H14        -8.1871   -3.8135    0.0800 H         1 <0>         0.1305
     41 H15        -3.9227   -5.2887    1.2253 H         1 <0>         0.1373
     42 H16        -4.4817   -6.3365    3.3747 H         1 <0>         0.1418
     43 H17        -3.1054   -1.5927    3.2242 H         1 <0>         0.1412
@<TRIPOS>BOND
     1    1    2 1
     2    1   27 1
     3    1   28 1
     4    1   29 1
     5    2    6 1
     6    2    3 2
     7    3    4 1
     8    4    5 2
     9    4    7 1
    10    5    6 1
    11    5   30 1
    12    7    8 1
    13    7    9 1
    14    7   31 1
    15    8   32 1
    16    8   33 1
    17    8   34 1
    18    9   10 1
    19    9   18 1
    20   10   11 1
    21   10   35 1
    22   10   36 1
    23   11   16 ar
    24   11   12 ar
    25   12   13 ar
    26   12   37 1
    27   13   14 ar
    28   13   38 1
    29   14   15 ar
    30   14   39 1
    31   15   16 ar
    32   15   40 1
    33   16   17 1
    34   18   23 ar
    35   18   19 ar
    36   19   20 ar
    37   19   41 1
    38   20   21 ar
    39   20   42 1
    40   21   22 ar
    41   21   25 1
    42   22   23 ar
    43   22   24 1
    44   23   43 1
    45   25   26 3
@<TRIPOS>MOLECULE
CHEMBL551782__1
   43    45     0     0     0
SMALL
USER_CHARGES

@<TRIPOS>ATOM
      1 C1         -4.8738   -7.1184   -0.0672 C.3       1 <0>        -0.0646
      2 C2         -3.6480   -6.2983    0.2426 C.2       1 <0>         0.0577
      3 N1         -3.3483   -5.0935   -0.1745 N.2       1 <0>        -0.4905
      4 C3         -2.2272   -4.5018    0.1866 C.2       1 <0>         0.0514
      5 C4         -1.4009   -5.1981    1.0085 C.2       1 <0>        -0.2254
      6 S1         -2.3356   -6.7056    1.2145 S.3       1 <0>         0.0994
      7 C5         -1.8783   -3.1158   -0.2915 C.3       1 <0>         0.2159
      8 C6         -0.9484   -3.2131   -1.5026 C.3       1 <0>        -0.1829
      9 N2         -3.1031   -2.4077   -0.6719 N.pl3     1 <0>        -0.5930
     10 C7         -3.5390   -1.2360    0.0918 C.3       1 <0>         0.1527
     11 C8         -4.3932   -1.6811    1.2508 C.ar      1 <0>        -0.0970
     12 C9         -5.7702   -1.6935    1.1300 C.ar      1 <0>        -0.0869
     13 C10        -6.5538   -2.1017    2.1929 C.ar      1 <0>        -0.1126
     14 C11        -5.9610   -2.4978    3.3775 C.ar      1 <0>        -0.1026
     15 C12        -4.5845   -2.4858    3.4995 C.ar      1 <0>        -0.1124
     16 C13        -3.7993   -2.0827    2.4338 C.ar      1 <0>        -0.0176
     17 Cl1        -2.0698   -2.0736    2.5840 Cl        1 <0>        -0.0685
     18 C14        -3.8527   -2.8483   -1.7588 C.ar      1 <0>         0.2773
     19 C15        -3.5225   -4.0440   -2.3911 C.ar      1 <0>        -0.1432
     20 C16        -4.2607   -4.4833   -3.4660 C.ar      1 <0>        -0.0285
     21 C17        -5.3444   -3.7274   -3.9240 C.ar      1 <0>        -0.0834
     22 C18        -5.6740   -2.5261   -3.2867 C.ar      1 <0>         0.0509
     23 C19        -4.9332   -2.0956   -2.2070 C.ar      1 <0>        -0.1980
     24 Cl2        -7.0178   -1.5828   -3.8507 Cl        1 <0>        -0.0577
     25 C20        -6.1146   -4.1813   -5.0426 C.1       1 <0>         0.2577
     26 N3         -6.7256   -4.5414   -5.9301 N.1       1 <0>        -0.4204
     27 H1         -4.7690   -8.1094    0.3743 H         1 <0>         0.0823
     28 H2         -5.7540   -6.6271    0.3474 H         1 <0>         0.0888
     29 H3         -4.9849   -7.2118   -1.1475 H         1 <0>         0.0914
     30 H4         -0.4451   -4.9168    1.4252 H         1 <0>         0.1906
     31 H5         -1.3771   -2.5710    0.5085 H         1 <0>         0.1131
     32 H6         -1.4852   -3.6636   -2.3375 H         1 <0>         0.0816
     33 H7         -0.6117   -2.2152   -1.7832 H         1 <0>         0.0714
     34 H8         -0.0860   -3.8300   -1.2499 H         1 <0>         0.0720
     35 H9         -2.6662   -0.7020    0.4677 H         1 <0>         0.0923
     36 H10        -4.1182   -0.5762   -0.5542 H         1 <0>         0.0966
     37 H11        -6.2339   -1.3839    0.2050 H         1 <0>         0.1313
     38 H12        -7.6296   -2.1109    2.0982 H         1 <0>         0.1297
     39 H13        -6.5738   -2.8164    4.2078 H         1 <0>         0.1313
     40 H14        -4.1216   -2.7950    4.4250 H         1 <0>         0.1314
     41 H15        -2.6853   -4.6275   -2.0375 H         1 <0>         0.1465
     42 H16        -4.0033   -5.4108   -3.9557 H         1 <0>         0.1338
     43 H17        -5.1891   -1.1708   -1.7114 H         1 <0>         0.1379
@<TRIPOS>BOND
     1    1    2 1
     2    1   27 1
     3    1   28 1
     4    1   29 1
     5    2    6 1
     6    2    3 2
     7    3    4 1
     8    4    5 2
     9    4    7 1
    10    5    6 1
    11    5   30 1
    12    7    8 1
    13    7    9 1
    14    7   31 1
    15    8   32 1
    16    8   33 1
    17    8   34 1
    18    9   10 1
    19    9   18 1
    20   10   11 1
    21   10   35 1
    22   10   36 1
    23   11   16 ar
    24   11   12 ar
    25   12   13 ar
    26   12   37 1
    27   13   14 ar
    28   13   38 1
    29   14   15 ar
    30   14   39 1
    31   15   16 ar
    32   15   40 1
    33   16   17 1
    34   18   23 ar
    35   18   19 ar
    36   19   20 ar
    37   19   41 1
    38   20   21 ar
    39   20   42 1
    40   21   22 ar
    41   21   25 1
    42   22   23 ar
    43   22   24 1
    44   23   43 1
    45   25   26 3
@<TRIPOS>MOLECULE
CHEMBL1163620
   57    60     0     0     0
SMALL
USER_CHARGES

@<TRIPOS>ATOM
      1 C1         -0.0323    1.4271    0.0091 C.ar      1 <0>        -0.0848
      2 C2          1.1628    2.1224    0.0037 C.ar      1 <0>        -0.1198
      3 C3          2.3626    1.4366   -0.0178 C.ar      1 <0>        -0.0810
      4 C4          2.3690    0.0545   -0.0342 C.ar      1 <0>        -0.1351
      5 C5          1.1731   -0.6428   -0.0288 C.ar      1 <0>         0.1011
      6 C6         -0.0284    0.0454   -0.0070 C.ar      1 <0>        -0.1492
      7 F1          1.1782   -1.9937   -0.0454 F         1 <0>        -0.1375
      8 C7          3.6643    2.1959   -0.0236 C.3       1 <0>         0.1991
      9 C8          4.2150    2.2530   -1.4499 C.3       1 <0>        -0.1735
     10 C9          5.4508    3.1151   -1.4772 C.2       1 <0>         0.3998
     11 O1          5.8516    3.6330   -0.4561 O.2       1 <0>        -0.4502
     12 C10         6.1692    3.3281   -2.7389 C.ar      1 <0>        -0.2418
     13 C11         5.7047    2.7355   -3.9206 C.ar      1 <0>        -0.0178
     14 C12         6.3760    2.9367   -5.0925 C.ar      1 <0>        -0.2163
     15 C13         7.5211    3.7297   -5.1144 C.ar      1 <0>         0.2587
     16 C14         7.9865    4.3208   -3.9418 C.ar      1 <0>        -0.2160
     17 C15         7.3183    4.1292   -2.7665 C.ar      1 <0>        -0.0020
     18 N1          8.2011    3.9313   -6.3086 N.pl3     1 <0>        -0.6205
     19 C16         7.8017    3.2250   -7.5362 C.3       1 <0>         0.0795
     20 C17         7.6494    4.2567   -8.6597 C.3       1 <0>         0.0452
     21 O2          8.8393    5.0450   -8.7394 O.3       1 <0>        -0.3771
     22 C18         9.1144    5.8100   -7.5634 C.3       1 <0>         0.0456
     23 C19         9.3382    4.8621   -6.3850 C.3       1 <0>         0.0795
     24 N2          4.6291    1.5179    0.8456 N.pl3     1 <0>        -0.7135
     25 C20         4.6372    1.7794    2.2176 C.ar      1 <0>         0.2792
     26 C21         3.7273    2.6778    2.7604 C.ar      1 <0>        -0.1929
     27 C22         3.7376    2.9337    4.1175 C.ar      1 <0>        -0.0041
     28 C23         4.6525    2.2968    4.9358 C.ar      1 <0>        -0.1126
     29 C24         5.5597    1.4019    4.3988 C.ar      1 <0>        -0.0045
     30 C25         5.5514    1.1374    3.0433 C.ar      1 <0>        -0.1946
     31 N3          4.6610    2.5739    6.3897 N.pl3     1 <0>         0.0457
     32 O3          3.8687    3.3564    6.8606 O.2       1 <0>        -0.1751
     33 O4          5.4603    2.0179    7.1064 O.3       1 <0>        -0.1752
     34 H1         -0.9692    1.9640    0.0303 H         1 <0>         0.1369
     35 H2          1.1587    3.2024    0.0158 H         1 <0>         0.1323
     36 H3          3.3066   -0.4812   -0.0517 H         1 <0>         0.1320
     37 H4         -0.9620   -0.4976   -0.0024 H         1 <0>         0.1372
     38 H5          3.4956    3.2090    0.3415 H         1 <0>         0.1054
     39 H6          4.4671    1.2461   -1.7826 H         1 <0>         0.1072
     40 H7          3.4615    2.6769   -2.1137 H         1 <0>         0.1191
     41 H8          4.8172    2.1203   -3.9044 H         1 <0>         0.1299
     42 H9          6.0188    2.4800   -6.0037 H         1 <0>         0.1294
     43 H10         8.8749    4.9346   -3.9632 H         1 <0>         0.1290
     44 H11         7.6772    4.5915   -1.8588 H         1 <0>         0.1325
     45 H12         8.5672    2.4978   -7.8068 H         1 <0>         0.0773
     46 H13         6.8517    2.7158   -7.3741 H         1 <0>         0.0968
     47 H14         7.4894    3.7422   -9.6072 H         1 <0>         0.1085
     48 H15         6.7979    4.9032   -8.4474 H         1 <0>         0.0576
     49 H16        10.0085    6.4129   -7.7221 H         1 <0>         0.1093
     50 H17         8.2683    6.4621   -7.3470 H         1 <0>         0.0573
     51 H18         9.4053    5.4364   -5.4610 H         1 <0>         0.0966
     52 H19        10.2611    4.3025   -6.5378 H         1 <0>         0.0768
     53 H20         5.2624    0.8874    0.4684 H         1 <0>         0.4055
     54 H21         3.0127    3.1758    2.1218 H         1 <0>         0.1414
     55 H22         3.0307    3.6324    4.5401 H         1 <0>         0.1503
     56 H23         6.2731    0.9065    5.0406 H         1 <0>         0.1509
     57 H24         6.2574    0.4353    2.6251 H         1 <0>         0.1421
@<TRIPOS>BOND
     1    1    6 ar
     2    1    2 ar
     3    1   34 1
     4    2    3 ar
     5    2   35 1
     6    3    4 ar
     7    3    8 1
     8    4    5 ar
     9    4   36 1
    10    5    6 ar
    11    5    7 1
    12    6   37 1
    13    8    9 1
    14    8   24 1
    15    8   38 1
    16    9   10 1
    17    9   39 1
    18    9   40 1
    19   10   11 2
    20   10   12 1
    21   12   17 ar
    22   12   13 ar
    23   13   14 ar
    24   13   41 1
    25   14   15 ar
    26   14   42 1
    27   15   16 ar
    28   15   18 1
    29   16   17 ar
    30   16   43 1
    31   17   44 1
    32   18   23 1
    33   18   19 1
    34   19   20 1
    35   19   45 1
    36   19   46 1
    37   20   21 1
    38   20   47 1
    39   20   48 1
    40   21   22 1
    41   22   23 1
    42   22   49 1
    43   22   50 1
    44   23   51 1
    45   23   52 1
    46   24   25 1
    47   24   53 1
    48   25   30 ar
    49   25   26 ar
    50   26   27 ar
    51   26   54 1
    52   27   28 ar
    53   27   55 1
    54   28   29 ar
    55   28   31 1
    56   29   30 ar
    57   29   56 1
    58   30   57 1
    59   31   32 2
    60   31   33 1
@<TRIPOS>MOLECULE
CHEMBL1163620__1
   57    60     0     0     0
SMALL
USER_CHARGES

@<TRIPOS>ATOM
      1 C1         -0.0005    1.3282    0.0079 C.ar      1 <0>        -0.0847
      2 C2          1.1795    2.0489    0.0029 C.ar      1 <0>        -0.1197
      3 C3          2.3937    1.3887   -0.0185 C.ar      1 <0>        -0.0810
      4 C4          2.4295    0.0071   -0.0353 C.ar      1 <0>        -0.1351
      5 C5          1.2487   -0.7155   -0.0302 C.ar      1 <0>         0.1010
      6 C6          0.0328   -0.0531   -0.0084 C.ar      1 <0>        -0.1491
      7 F1          1.2825   -2.0660   -0.0471 F         1 <0>        -0.1376
      8 C7          3.6789    2.1756   -0.0239 C.3       1 <0>         0.1990
      9 C8          4.2606    2.2120    1.3907 C.3       1 <0>        -0.1734
     10 C9          5.4783    3.0997    1.4104 C.2       1 <0>         0.3998
     11 O1          5.8448    3.6493    0.3930 O.2       1 <0>        -0.4502
     12 C10         6.2207    3.2993    2.6605 C.ar      1 <0>        -0.2418
     13 C11         5.8025    2.6608    3.8355 C.ar      1 <0>        -0.0178
     14 C12         6.4965    2.8489    4.9963 C.ar      1 <0>        -0.2164
     15 C13         7.6187    3.6742    5.0135 C.ar      1 <0>         0.2587
     16 C14         8.0380    4.3109    3.8474 C.ar      1 <0>        -0.2160
     17 C15         7.3530    4.1242    2.6811 C.ar      1 <0>        -0.0020
     18 N1          8.3213    3.8630    6.1965 N.pl3     1 <0>        -0.6204
     19 C16         7.8336    3.2996    7.4654 C.3       1 <0>         0.0795
     20 C17         8.9835    2.5319    8.1273 C.3       1 <0>         0.0451
     21 O2         10.1308    3.3811    8.2091 O.3       1 <0>        -0.3770
     22 C18        10.6409    3.7994    6.9408 C.3       1 <0>         0.0456
     23 C19         9.5787    4.6272    6.2171 C.3       1 <0>         0.0795
     24 N2          4.6377    1.5386   -0.9301 N.pl3     1 <0>        -0.7135
     25 C20         4.6090    1.8314   -2.2955 C.ar      1 <0>         0.2792
     26 C21         3.6757    2.7309   -2.7950 C.ar      1 <0>        -0.1927
     27 C22         3.6503    3.0186   -4.1455 C.ar      1 <0>        -0.0040
     28 C23         4.5527    2.4124   -5.0002 C.ar      1 <0>        -0.1126
     29 C24         5.4831    1.5165   -4.5062 C.ar      1 <0>        -0.0046
     30 C25         5.5174    1.2283   -3.1560 C.ar      1 <0>        -0.1947
     31 N3          4.5223    2.7227   -6.4470 N.pl3     1 <0>         0.0458
     32 O3          3.7091    3.5054   -6.8804 O.2       1 <0>        -0.1750
     33 O4          5.3105    2.1935   -7.1955 O.3       1 <0>        -0.1752
     34 H1         -0.9486    1.8450    0.0291 H         1 <0>         0.1369
     35 H2          1.1524    3.1285    0.0153 H         1 <0>         0.1324
     36 H3          3.3783   -0.5085   -0.0526 H         1 <0>         0.1320
     37 H4         -0.8890   -0.6158   -0.0042 H         1 <0>         0.1372
     38 H5          3.4806    3.1929   -0.3615 H         1 <0>         0.1054
     39 H6          3.5137    2.6044    2.0807 H         1 <0>         0.1192
     40 H7          4.5414    1.2034    1.6941 H         1 <0>         0.1071
     41 H8          4.9324    2.0211    3.8231 H         1 <0>         0.1299
     42 H9          6.1747    2.3574    5.9026 H         1 <0>         0.1293
     43 H10         8.9083    4.9501    3.8652 H         1 <0>         0.1289
     44 H11         7.6813    4.6146    1.7766 H         1 <0>         0.1325
     45 H12         7.5039    4.1048    8.1219 H         1 <0>         0.0774
     46 H13         7.0032    2.6209    7.2706 H         1 <0>         0.0968
     47 H14         8.6863    2.2240    9.1298 H         1 <0>         0.1086
     48 H15         9.2240    1.6514    7.5315 H         1 <0>         0.0574
     49 H16        11.5360    4.4033    7.0896 H         1 <0>         0.1093
     50 H17        10.8874    2.9235    6.3406 H         1 <0>         0.0571
     51 H18         9.9035    4.8271    5.1960 H         1 <0>         0.0966
     52 H19         9.4277    5.5683    6.7458 H         1 <0>         0.0770
     53 H20         5.2925    0.9134   -0.5818 H         1 <0>         0.4055
     54 H21         2.9704    3.2044   -2.1281 H         1 <0>         0.1414
     55 H22         2.9247    3.7175   -4.5346 H         1 <0>         0.1503
     56 H23         6.1862    1.0445   -5.1766 H         1 <0>         0.1509
     57 H24         6.2470    0.5316   -2.7703 H         1 <0>         0.1421
@<TRIPOS>BOND
     1    1    6 ar
     2    1    2 ar
     3    1   34 1
     4    2    3 ar
     5    2   35 1
     6    3    4 ar
     7    3    8 1
     8    4    5 ar
     9    4   36 1
    10    5    6 ar
    11    5    7 1
    12    6   37 1
    13    8    9 1
    14    8   24 1
    15    8   38 1
    16    9   10 1
    17    9   39 1
    18    9   40 1
    19   10   11 2
    20   10   12 1
    21   12   17 ar
    22   12   13 ar
    23   13   14 ar
    24   13   41 1
    25   14   15 ar
    26   14   42 1
    27   15   16 ar
    28   15   18 1
    29   16   17 ar
    30   16   43 1
    31   17   44 1
    32   18   23 1
    33   18   19 1
    34   19   20 1
    35   19   45 1
    36   19   46 1
    37   20   21 1
    38   20   47 1
    39   20   48 1
    40   21   22 1
    41   22   23 1
    42   22   49 1
    43   22   50 1
    44   23   51 1
    45   23   52 1
    46   24   25 1
    47   24   53 1
    48   25   30 ar
    49   25   26 ar
    50   26   27 ar
    51   26   54 1
    52   27   28 ar
    53   27   55 1
    54   28   29 ar
    55   28   31 1
    56   29   30 ar
    57   29   56 1
    58   30   57 1
    59   31   32 2
    60   31   33 1
@<TRIPOS>MOLECULE
CHEMBL157407
   43    46     0     0     0
SMALL
USER_CHARGES

@<TRIPOS>ATOM
      1 C1         -0.0187    1.5258    0.0104 C.3       1 <0>        -0.1566
      2 C2          0.0021   -0.0041    0.0020 C.3       1 <0>         0.1584
      3 C3         -1.4294   -0.5610    0.0547 C.3       1 <0>        -0.1230
      4 C4         -1.3572   -1.6743    1.1335 C.3       1 <0>        -0.1343
      5 C5         -0.2745   -1.1134    2.0963 C.3       1 <0>         0.1137
      6 N1          0.7126   -0.5186    1.1913 N.pl3     1 <0>        -0.6167
      7 C6          2.0942   -0.4519    1.3183 C.ar      1 <0>         0.3076
      8 C7          2.7018   -0.6266    2.5484 C.ar      1 <0>        -0.2491
      9 C8          4.0848   -0.5648    2.6484 C.ar      1 <0>         0.2453
     10 C9          4.8509   -0.3274    1.4897 C.ar      1 <0>        -0.1701
     11 C10         4.2147   -0.1496    0.2554 C.ar      1 <0>        -0.0173
     12 C11         2.8514   -0.2038    0.1673 C.ar      1 <0>        -0.1619
     13 C12         2.1991    0.0223   -1.1701 C.3       1 <0>        -0.0736
     14 C13         0.7718   -0.5223   -1.2162 C.3       1 <0>        -0.1231
     15 C14         6.2650   -0.2703    1.5934 C.2       1 <0>        -0.0591
     16 C15         6.8471   -0.4421    2.8059 C.2       1 <0>        -0.1730
     17 C16         6.0566   -0.6753    3.9501 C.2       1 <0>         0.5368
     18 O1          6.5964   -0.8255    5.0327 O.2       1 <0>        -0.5237
     19 N2          4.7143   -0.7340    3.8642 N.am      1 <0>        -0.5162
     20 C17         3.9175   -0.9790    5.0689 C.3       1 <0>         0.0637
     21 C18         7.1098   -0.0221    0.3704 C.3       1 <0>         0.5061
     22 F1          8.4613   -0.0112    0.7316 F         1 <0>        -0.1688
     23 F2          6.8853   -1.0376   -0.5653 F         1 <0>        -0.1680
     24 F3          6.7669    1.2129   -0.1904 F         1 <0>        -0.1681
     25 H1          1.0039    1.9031    0.0027 H         1 <0>         0.0633
     26 H2         -0.5459    1.8868   -0.8726 H         1 <0>         0.0699
     27 H3         -0.5289    1.8773    0.9072 H         1 <0>         0.0600
     28 H4         -2.1316    0.2169    0.3544 H         1 <0>         0.0807
     29 H5         -1.7119   -0.9815   -0.9104 H         1 <0>         0.0836
     30 H6         -2.3137   -1.7850    1.6443 H         1 <0>         0.0855
     31 H7         -1.0382   -2.6206    0.6966 H         1 <0>         0.0765
     32 H8         -0.7003   -0.3542    2.7523 H         1 <0>         0.0685
     33 H9          0.1747   -1.9176    2.6791 H         1 <0>         0.0768
     34 H10         2.1025   -0.8101    3.4279 H         1 <0>         0.1376
     35 H11         4.8037    0.0322   -0.6314 H         1 <0>         0.1338
     36 H12         2.1762    1.0924   -1.3761 H         1 <0>         0.0780
     37 H13         2.7912   -0.4718   -1.9404 H         1 <0>         0.0795
     38 H14         0.7962   -1.6118   -1.1961 H         1 <0>         0.0719
     39 H15         0.2814   -0.1836   -2.1288 H         1 <0>         0.0806
     40 H16         7.9225   -0.4005    2.8958 H         1 <0>         0.1673
     41 H17         3.7751   -2.0519    5.1984 H         1 <0>         0.0760
     42 H18         4.4376   -0.5742    5.9371 H         1 <0>         0.0954
     43 H19         2.9470   -0.4932    4.9677 H         1 <0>         0.0859
@<TRIPOS>BOND
     1    1    2 1
     2    1   25 1
     3    1   26 1
     4    1   27 1
     5    2    6 1
     6    2   14 1
     7    2    3 1
     8    3    4 1
     9    3   28 1
    10    3   29 1
    11    4    5 1
    12    4   30 1
    13    4   31 1
    14    5    6 1
    15    5   32 1
    16    5   33 1
    17    6    7 1
    18    7   12 ar
    19    7    8 ar
    20    8    9 ar
    21    8   34 1
    22    9   19 1
    23    9   10 ar
    24   10   11 ar
    25   10   15 1
    26   11   12 ar
    27   11   35 1
    28   12   13 1
    29   13   14 1
    30   13   36 1
    31   13   37 1
    32   14   38 1
    33   14   39 1
    34   15   16 2
    35   15   21 1
    36   16   17 1
    37   16   40 1
    38   17   18 2
    39   17   19 am
    40   19   20 1
    41   20   41 1
    42   20   42 1
    43   20   43 1
    44   21   22 1
    45   21   23 1
    46   21   24 1
@<TRIPOS>MOLECULE
CHEMBL157407__1
   43    46     0     0     0
SMALL
USER_CHARGES

@<TRIPOS>ATOM
      1 C1         -0.0187    1.5258    0.0104 C.3       1 <0>        -0.1551
      2 C2          0.0021   -0.0041    0.0020 C.3       1 <0>         0.1583
      3 C3          0.7657   -0.5325   -1.2240 C.3       1 <0>        -0.1225
      4 C4          2.2193   -0.6315   -0.6810 C.3       1 <0>        -0.1314
      5 C5          1.9854   -1.1150    0.7722 C.3       1 <0>         0.1149
      6 N1          0.7113   -0.5270    1.1889 N.pl3     1 <0>        -0.6177
      7 C6          0.1479   -0.4825    2.4602 C.ar      1 <0>         0.3058
      8 C7          0.9333   -0.6452    3.5868 C.ar      1 <0>        -0.2472
      9 C8          0.3478   -0.6075    4.8448 C.ar      1 <0>         0.2444
     10 C9         -1.0426   -0.4056    4.9533 C.ar      1 <0>        -0.1692
     11 C10        -1.8173   -0.2392    3.7992 C.ar      1 <0>        -0.0180
     12 C11        -1.2316   -0.2711    2.5639 C.ar      1 <0>        -0.1609
     13 C12        -2.0914   -0.0604    1.3466 C.3       1 <0>        -0.0735
     14 C13        -1.4202   -0.5667    0.0700 C.3       1 <0>        -0.1239
     15 C14        -1.6400   -0.3725    6.2401 C.2       1 <0>        -0.0594
     16 C15        -0.8588   -0.5327    7.3368 C.2       1 <0>        -0.1724
     17 C16         0.5306   -0.7302    7.1998 C.2       1 <0>         0.5367
     18 O1          1.2183   -0.8709    8.1965 O.2       1 <0>        -0.5237
     19 N2          1.1089   -0.7661    5.9844 N.am      1 <0>        -0.5162
     20 C17         2.5546   -0.9744    5.8716 C.3       1 <0>         0.0639
     21 C18        -3.1249   -0.1613    6.3861 C.3       1 <0>         0.5061
     22 F1         -3.4659   -0.1687    7.7429 F         1 <0>        -0.1688
     23 F2         -3.4784    1.0697    5.8231 F         1 <0>        -0.1681
     24 F3         -3.8091   -1.1887    5.7277 F         1 <0>        -0.1680
     25 H1          1.0039    1.9031    0.0027 H         1 <0>         0.0605
     26 H2         -0.5459    1.8868   -0.8726 H         1 <0>         0.0697
     27 H3         -0.5289    1.8773    0.9072 H         1 <0>         0.0635
     28 H4          0.3937   -1.5129   -1.5216 H         1 <0>         0.0800
     29 H5          0.7070    0.1727   -2.0530 H         1 <0>         0.0870
     30 H6          2.7975   -1.3623   -1.2465 H         1 <0>         0.0867
     31 H7          2.7071    0.3432   -0.6936 H         1 <0>         0.0784
     32 H8          1.9247   -2.2030    0.8012 H         1 <0>         0.0648
     33 H9          2.7902   -0.7654    1.4188 H         1 <0>         0.0685
     34 H10         1.9974   -0.8013    3.4883 H         1 <0>         0.1378
     35 H11        -2.8829   -0.0854    3.8849 H         1 <0>         0.1339
     36 H12        -3.0345   -0.5892    1.4840 H         1 <0>         0.0796
     37 H13        -2.2975    1.0046    1.2393 H         1 <0>         0.0780
     38 H14        -1.9874   -0.2315   -0.7984 H         1 <0>         0.0810
     39 H15        -1.3817   -1.6559    0.0850 H         1 <0>         0.0719
     40 H16        -1.3033   -0.5086    8.3208 H         1 <0>         0.1674
     41 H17         3.0628   -0.0102    5.8852 H         1 <0>         0.0761
     42 H18         2.9010   -1.5795    6.7095 H         1 <0>         0.0954
     43 H19         2.7757   -1.4886    4.9363 H         1 <0>         0.0856
@<TRIPOS>BOND
     1    1    2 1
     2    1   25 1
     3    1   26 1
     4    1   27 1
     5    2    6 1
     6    2   14 1
     7    2    3 1
     8    3    4 1
     9    3   28 1
    10    3   29 1
    11    4    5 1
    12    4   30 1
    13    4   31 1
    14    5    6 1
    15    5   32 1
    16    5   33 1
    17    6    7 1
    18    7   12 ar
    19    7    8 ar
    20    8    9 ar
    21    8   34 1
    22    9   19 1
    23    9   10 ar
    24   10   11 ar
    25   10   15 1
    26   11   12 ar
    27   11   35 1
    28   12   13 1
    29   13   14 1
    30   13   36 1
    31   13   37 1
    32   14   38 1
    33   14   39 1
    34   15   16 2
    35   15   21 1
    36   16   17 1
    37   16   40 1
    38   17   18 2
    39   17   19 am
    40   19   20 1
    41   20   41 1
    42   20   42 1
    43   20   43 1
    44   21   22 1
    45   21   23 1
    46   21   24 1
@<TRIPOS>MOLECULE
CHEMBL24245
   32    34     0     0     0
SMALL
USER_CHARGES

@<TRIPOS>ATOM
      1 C1         -0.0187    1.5258    0.0104 C.3       1 <0>        -0.1715
      2 C2          0.0021   -0.0041    0.0020 C.3       1 <0>         0.1489
      3 C3          0.7216   -0.4929   -1.2299 C.ar      1 <0>        -0.1449
      4 C4          0.0416   -0.7159   -2.4035 C.ar      1 <0>        -0.0481
      5 C5          0.7344   -1.1677   -3.5311 C.ar      1 <0>        -0.0332
      6 C6          2.1124   -1.3898   -3.4596 C.ar      1 <0>        -0.0510
      7 C7          2.7866   -1.1643   -2.2789 C.ar      1 <0>        -0.1244
      8 C8          2.0951   -0.7165   -1.1616 C.ar      1 <0>         0.1421
      9 N1          2.7555   -0.4835    0.0481 N.pl3     1 <0>        -0.6080
     10 C9          2.0339   -0.3557    1.1807 C.2       1 <0>         0.4997
     11 O1          0.6935   -0.4805    1.1602 O.3       1 <0>        -0.2746
     12 S1          2.8314   -0.0320    2.6606 S.2       1 <0>        -0.4828
     13 C10         0.0114   -1.4100   -4.7946 C.2       1 <0>         0.0685
     14 C11         0.5698   -1.8546   -5.9586 C.2       1 <0>        -0.1875
     15 C12        -0.4606   -1.9464   -6.9004 C.2       1 <0>        -0.1113
     16 C13        -1.6172   -1.5496   -6.2645 C.2       1 <0>         0.0430
     17 O2         -1.3076   -1.2353   -4.9890 O.3       1 <0>        -0.1483
     18 C14        -2.9213   -1.4876   -6.8529 C.1       1 <0>         0.2845
     19 N2         -3.9558   -1.4384   -7.3196 N.1       1 <0>        -0.3678
     20 C15        -1.4324   -0.5363    0.0063 C.3       1 <0>        -0.1437
     21 H1          1.0039    1.9031    0.0027 H         1 <0>         0.0621
     22 H2         -0.5459    1.8868   -0.8726 H         1 <0>         0.0875
     23 H3         -0.5289    1.8773    0.9072 H         1 <0>         0.0855
     24 H4         -1.0233   -0.5433   -2.4544 H         1 <0>         0.1473
     25 H5          2.6489   -1.7386   -4.3296 H         1 <0>         0.1481
     26 H6          3.8515   -1.3358   -2.2229 H         1 <0>         0.1486
     27 H7          1.6111   -2.0903   -6.1217 H         1 <0>         0.1675
     28 H8         -0.3676   -2.2661   -7.9278 H         1 <0>         0.1701
     29 H9         -1.9562   -0.1761   -0.8792 H         1 <0>         0.0901
     30 H10        -1.4156   -1.6261    0.0003 H         1 <0>         0.0756
     31 H11        -1.9473   -0.1857    0.9008 H         1 <0>         0.0841
     32 H12         3.7227   -0.4140    0.0729 H         1 <0>         0.4442
@<TRIPOS>BOND
     1    1    2 1
     2    1   21 1
     3    1   22 1
     4    1   23 1
     5    2   11 1
     6    2    3 1
     7    2   20 1
     8    3    8 ar
     9    3    4 ar
    10    4    5 ar
    11    4   24 1
    12    5    6 ar
    13    5   13 1
    14    6    7 ar
    15    6   25 1
    16    7    8 ar
    17    7   26 1
    18    8    9 1
    19    9   10 1
    20    9   32 1
    21   10   11 1
    22   10   12 2
    23   13   17 1
    24   13   14 2
    25   14   15 1
    26   14   27 1
    27   15   16 2
    28   15   28 1
    29   16   17 1
    30   16   18 1
    31   18   19 3
    32   20   29 1
    33   20   30 1
    34   20   31 1
@<TRIPOS>MOLECULE
CHEMBL557293
   46    48     0     0     0
SMALL
USER_CHARGES

@<TRIPOS>ATOM
      1 C1          0.5033    0.4084    0.1736 C.3       1 <0>        -0.1525
      2 C2         -0.1458   -0.9464   -0.1164 C.3       1 <0>        -0.1389
      3 C3         -1.6683   -0.7956   -0.1043 C.3       1 <0>         0.2645
      4 C4         -2.3087   -2.1531   -0.2383 C.2       1 <0>         0.1529
      5 N1         -2.3312   -2.8952   -1.3118 N.2       1 <0>        -0.2689
      6 N2         -2.9615   -3.9894   -1.0686 N.2       1 <0>        -0.2945
      7 C5         -3.3697   -3.9951    0.1711 C.2       1 <0>         0.1498
      8 N3         -2.9627   -2.8321    0.7348 N.pl3     1 <0>        -0.4749
      9 C6         -3.1869   -2.3961    2.1153 C.3       1 <0>         0.0690
     10 N4         -2.0838    0.0531   -1.2238 N.pl3     1 <0>        -0.6466
     11 C7         -2.8692    1.2641   -0.9728 C.3       1 <0>         0.1773
     12 C8         -1.9421    2.4027   -0.6335 C.ar      1 <0>        -0.1004
     13 C9         -1.7189    2.7422    0.6878 C.ar      1 <0>        -0.0950
     14 C10        -0.8686    3.7865    0.9992 C.ar      1 <0>        -0.1153
     15 C11        -0.2408    4.4921   -0.0106 C.ar      1 <0>        -0.1028
     16 C12        -0.4631    4.1536   -1.3318 C.ar      1 <0>        -0.1107
     17 C13        -1.3098    3.1046   -1.6440 C.ar      1 <0>        -0.0206
     18 Cl1        -1.5845    2.6746   -3.3033 Cl        1 <0>        -0.0579
     19 C14        -1.7325   -0.2911   -2.5259 C.ar      1 <0>         0.2341
     20 C15        -2.7034   -0.7630   -3.4053 C.ar      1 <0>        -0.1013
     21 C16        -2.3605   -1.1044   -4.6935 C.ar      1 <0>        -0.0466
     22 C17        -1.0348   -0.9773   -5.1198 C.ar      1 <0>        -0.0296
     23 C18        -0.0612   -0.5029   -4.2338 C.ar      1 <0>         0.0146
     24 C19        -0.4135   -0.1575   -2.9468 C.ar      1 <0>        -0.1203
     25 Cl2         1.5865   -0.3432   -4.7567 Cl        1 <0>        -0.0551
     26 C20        -0.6744   -1.3322   -6.4595 C.1       1 <0>         0.2513
     27 N5         -0.3884   -1.6137   -7.5223 N.1       1 <0>        -0.4041
     28 H1          1.5880    0.3009    0.1649 H         1 <0>         0.0581
     29 H2          0.2032    1.1259   -0.5900 H         1 <0>         0.0671
     30 H3          0.1812    0.7635    1.1525 H         1 <0>         0.0553
     31 H4          0.1764   -1.3015   -1.0953 H         1 <0>         0.0837
     32 H5          0.1544   -1.6640    0.6472 H         1 <0>         0.0702
     33 H6         -1.9805   -0.3376    0.8343 H         1 <0>         0.0982
     34 H7         -3.9254   -4.7826    0.6584 H         1 <0>         0.2167
     35 H8         -4.1251   -1.8442    2.1742 H         1 <0>         0.0838
     36 H9         -3.2365   -3.2675    2.7682 H         1 <0>         0.0949
     37 H10        -2.3661   -1.7520    2.4308 H         1 <0>         0.0901
     38 H11        -3.4431    1.5162   -1.8645 H         1 <0>         0.0903
     39 H12        -3.5501    1.0894   -0.1398 H         1 <0>         0.0803
     40 H13        -2.2093    2.1916    1.4770 H         1 <0>         0.1269
     41 H14        -0.6948    4.0516    2.0316 H         1 <0>         0.1276
     42 H15         0.4232    5.3082    0.2333 H         1 <0>         0.1305
     43 H16         0.0271    4.7051   -2.1205 H         1 <0>         0.1325
     44 H17        -3.7272   -0.8614   -3.0758 H         1 <0>         0.1315
     45 H18        -3.1146   -1.4706   -5.3745 H         1 <0>         0.1400
     46 H19         0.3360    0.2130   -2.2633 H         1 <0>         0.1447
@<TRIPOS>BOND
     1    1    2 1
     2    1   28 1
     3    1   29 1
     4    1   30 1
     5    2    3 1
     6    2   31 1
     7    2   32 1
     8    3    4 1
     9    3   10 1
    10    3   33 1
    11    4    8 1
    12    4    5 2
    13    5    6 1
    14    6    7 2
    15    7    8 1
    16    7   34 1
    17    8    9 1
    18    9   35 1
    19    9   36 1
    20    9   37 1
    21   10   11 1
    22   10   19 1
    23   11   12 1
    24   11   38 1
    25   11   39 1
    26   12   17 ar
    27   12   13 ar
    28   13   14 ar
    29   13   40 1
    30   14   15 ar
    31   14   41 1
    32   15   16 ar
    33   15   42 1
    34   16   17 ar
    35   16   43 1
    36   17   18 1
    37   19   24 ar
    38   19   20 ar
    39   20   21 ar
    40   20   44 1
    41   21   22 ar
    42   21   45 1
    43   22   23 ar
    44   22   26 1
    45   23   24 ar
    46   23   25 1
    47   24   46 1
    48   26   27 3
@<TRIPOS>MOLECULE
CHEMBL557293__1
   46    48     0     0     0
SMALL
USER_CHARGES

@<TRIPOS>ATOM
      1 C1          0.0416    0.5811   -0.3197 C.3       1 <0>        -0.1490
      2 C2         -0.4104   -0.8758   -0.2015 C.3       1 <0>        -0.1332
      3 C3         -1.9293   -0.9258   -0.0242 C.3       1 <0>         0.2642
      4 C4         -2.3719   -2.3596    0.1155 C.2       1 <0>         0.1569
      5 N1         -2.1117   -3.1553    1.1168 N.2       1 <0>        -0.2713
      6 N2         -2.6451   -4.3061    0.9052 N.2       1 <0>        -0.2943
      7 C5         -3.2698   -4.2968   -0.2408 C.2       1 <0>         0.1490
      8 N3         -3.1185   -3.0597   -0.7723 N.pl3     1 <0>        -0.4717
      9 C6         -3.6513   -2.5779   -2.0491 C.3       1 <0>         0.0700
     10 N4         -2.3054   -0.1792    1.1788 N.pl3     1 <0>        -0.6510
     11 C7         -3.1632    1.0033    1.0688 C.3       1 <0>         0.1767
     12 C8         -4.6071    0.5742    1.0247 C.ar      1 <0>        -0.1002
     13 C9         -5.2466    0.4229   -0.1915 C.ar      1 <0>        -0.1015
     14 C10        -6.5709    0.0293   -0.2321 C.ar      1 <0>        -0.1161
     15 C11        -7.2569   -0.2134    0.9435 C.ar      1 <0>        -0.1050
     16 C12        -6.6187   -0.0626    2.1600 C.ar      1 <0>        -0.1098
     17 C13        -5.2913    0.3260    2.2011 C.ar      1 <0>        -0.0229
     18 Cl1        -4.4870    0.5093    3.7286 Cl        1 <0>        -0.0553
     19 C14        -1.8478   -0.5933    2.4264 C.ar      1 <0>         0.2125
     20 C15        -2.6118   -1.4721    3.1896 C.ar      1 <0>        -0.0604
     21 C16        -2.1633   -1.8842    4.4235 C.ar      1 <0>        -0.0584
     22 C17        -0.9380   -1.4194    4.9115 C.ar      1 <0>        -0.0175
     23 C18        -0.1723   -0.5363    4.1424 C.ar      1 <0>         0.0031
     24 C19        -0.6257   -0.1326    2.9049 C.ar      1 <0>        -0.1156
     25 Cl2         1.3494    0.0449    4.7428 Cl        1 <0>        -0.0556
     26 C20        -0.4684   -1.8457    6.1954 C.1       1 <0>         0.2505
     27 N5         -0.0958   -2.1840    7.2139 N.1       1 <0>        -0.4023
     28 H1          1.1236    0.6167   -0.4460 H         1 <0>         0.0595
     29 H2         -0.4402    1.0421   -1.1820 H         1 <0>         0.0535
     30 H3         -0.2367    1.1224    0.5845 H         1 <0>         0.0644
     31 H4         -0.1321   -1.4171   -1.1057 H         1 <0>         0.0700
     32 H5          0.0713   -1.3369    0.6608 H         1 <0>         0.0800
     33 H6         -2.4115   -0.4799   -0.8942 H         1 <0>         0.0958
     34 H7         -3.8105   -5.1212   -0.6818 H         1 <0>         0.2154
     35 H8         -2.9269   -2.7696   -2.8407 H         1 <0>         0.0844
     36 H9         -4.5819   -3.0989   -2.2743 H         1 <0>         0.0936
     37 H10        -3.8415   -1.5067   -1.9824 H         1 <0>         0.0881
     38 H11        -3.0026    1.6502    1.9312 H         1 <0>         0.0923
     39 H12        -2.9176    1.5467    0.1563 H         1 <0>         0.0851
     40 H13        -4.7113    0.6127   -1.1102 H         1 <0>         0.1266
     41 H14        -7.0702   -0.0884   -1.1825 H         1 <0>         0.1275
     42 H15        -8.2918   -0.5206    0.9112 H         1 <0>         0.1307
     43 H16        -7.1547   -0.2519    3.0782 H         1 <0>         0.1329
     44 H17        -3.5583   -1.8307    2.8126 H         1 <0>         0.1264
     45 H18        -2.7571   -2.5656    5.0146 H         1 <0>         0.1376
     46 H19        -0.0337    0.5455    2.3083 H         1 <0>         0.1447
@<TRIPOS>BOND
     1    1    2 1
     2    1   28 1
     3    1   29 1
     4    1   30 1
     5    2    3 1
     6    2   31 1
     7    2   32 1
     8    3    4 1
     9    3   10 1
    10    3   33 1
    11    4    8 1
    12    4    5 2
    13    5    6 1
    14    6    7 2
    15    7    8 1
    16    7   34 1
    17    8    9 1
    18    9   35 1
    19    9   36 1
    20    9   37 1
    21   10   11 1
    22   10   19 1
    23   11   12 1
    24   11   38 1
    25   11   39 1
    26   12   17 ar
    27   12   13 ar
    28   13   14 ar
    29   13   40 1
    30   14   15 ar
    31   14   41 1
    32   15   16 ar
    33   15   42 1
    34   16   17 ar
    35   16   43 1
    36   17   18 1
    37   19   24 ar
    38   19   20 ar
    39   20   21 ar
    40   20   44 1
    41   21   22 ar
    42   21   45 1
    43   22   23 ar
    44   22   26 1
    45   23   24 ar
    46   23   25 1
    47   24   46 1
    48   26   27 3
@<TRIPOS>MOLECULE
CHEMBL416411
   50    54     0     0     0
SMALL
USER_CHARGES

@<TRIPOS>ATOM
      1 C1         -0.0053    1.4374   -0.0010 C.3       1 <0>        -0.1315
      2 C2          0.0012   -0.0676    0.0200 C.2       1 <0>        -0.0603
      3 C3         -0.1002   -0.6607   -1.1723 C.2       1 <0>        -0.1720
      4 C4         -0.0715   -2.1569   -1.3034 C.3       1 <0>         0.2120
      5 N1          0.7491   -2.7096   -0.2203 N.pl3     1 <0>        -0.7338
      6 C5          0.5838   -2.2020    1.0695 C.ar      1 <0>         0.2252
      7 C6          0.1195   -0.8767    1.2413 C.ar      1 <0>        -0.0817
      8 C7         -0.2744   -0.4832    2.5202 C.ar      1 <0>        -0.0527
      9 C8          0.0928   -1.2820    3.6087 C.ar      1 <0>        -0.0874
     10 C9          0.7358   -2.5041    3.4274 C.ar      1 <0>        -0.0562
     11 C10         0.9650   -2.9703    2.1524 C.ar      1 <0>        -0.1755
     12 C11        -0.1957   -0.8283    4.9907 C.ar      1 <0>        -0.0945
     13 C12         0.2173   -1.5742    6.0895 C.ar      1 <0>        -0.1096
     14 C13        -0.0619   -1.1283    7.3692 C.ar      1 <0>         0.0644
     15 C14        -0.7529    0.0577    7.5549 C.ar      1 <0>        -0.1121
     16 C15        -1.1648    0.8027    6.4677 C.ar      1 <0>        -0.1218
     17 C16        -0.8883    0.3684    5.1774 C.ar      1 <0>         0.1440
     18 O1         -1.2859    1.0977    4.1250 O.3       1 <0>        -0.3062
     19 C17        -1.0783    0.7587    2.7694 C.3       1 <0>         0.1937
     20 C18        -2.4314    0.5952    2.1266 C.ar      1 <0>        -0.0855
     21 C19        -3.2956   -0.3865    2.5751 C.ar      1 <0>        -0.0861
     22 C20        -4.5369   -0.5371    1.9860 C.ar      1 <0>        -0.1058
     23 C21        -4.9149    0.2936    0.9477 C.ar      1 <0>        -0.1014
     24 C22        -4.0507    1.2759    0.4985 C.ar      1 <0>        -0.0343
     25 C23        -2.8105    1.4301    1.0927 C.ar      1 <0>        -0.0944
     26 Cl1        -4.5246    2.3195   -0.8053 Cl        1 <0>        -0.0659
     27 F1          0.3415   -1.8492    8.4379 F         1 <0>        -0.1388
     28 C24        -1.4923   -2.7129   -1.2101 C.3       1 <0>        -0.1560
     29 C25         0.5392   -2.5420   -2.6519 C.3       1 <0>        -0.1532
     30 H1          0.1804    1.8156    1.0043 H         1 <0>         0.0660
     31 H2          0.7746    1.7947   -0.6734 H         1 <0>         0.0752
     32 H3         -0.9756    1.7917   -0.3490 H         1 <0>         0.0794
     33 H4         -0.2033   -0.0448   -2.0521 H         1 <0>         0.1246
     34 H5          1.3927   -3.4142   -0.3963 H         1 <0>         0.4037
     35 H6          1.0548   -3.0840    4.2795 H         1 <0>         0.1321
     36 H7          1.4383   -3.9292    1.9970 H         1 <0>         0.1307
     37 H8          0.7558   -2.4997    5.9515 H         1 <0>         0.1402
     38 H9         -0.9696    0.4012    8.5560 H         1 <0>         0.1442
     39 H10        -1.7050    1.7262    6.6153 H         1 <0>         0.1442
     40 H11        -0.5774    1.6222    2.3219 H         1 <0>         0.1165
     41 H12        -3.0005   -1.0362    3.3858 H         1 <0>         0.1238
     42 H13        -5.2115   -1.3041    2.3367 H         1 <0>         0.1341
     43 H14        -5.8845    0.1754    0.4870 H         1 <0>         0.1351
     44 H15        -2.1372    2.1998    0.7455 H         1 <0>         0.1405
     45 H16        -2.1001   -2.2928   -2.0115 H         1 <0>         0.0667
     46 H17        -1.4647   -3.7983   -1.3059 H         1 <0>         0.0599
     47 H18        -1.9252   -2.4440   -0.2466 H         1 <0>         0.0573
     48 H19         1.5556   -2.1532   -2.7148 H         1 <0>         0.0637
     49 H20         0.5591   -3.6278   -2.7450 H         1 <0>         0.0641
     50 H21        -0.0619   -2.1193   -3.4570 H         1 <0>         0.0754
@<TRIPOS>BOND
     1    1    2 1
     2    1   30 1
     3    1   31 1
     4    1   32 1
     5    2    7 1
     6    2    3 2
     7    3    4 1
     8    3   33 1
     9    4    5 1
    10    4   28 1
    11    4   29 1
    12    5    6 1
    13    5   34 1
    14    6   11 ar
    15    6    7 ar
    16    7    8 ar
    17    8   19 1
    18    8    9 ar
    19    9   10 ar
    20    9   12 1
    21   10   11 ar
    22   10   35 1
    23   11   36 1
    24   12   17 ar
    25   12   13 ar
    26   13   14 ar
    27   13   37 1
    28   14   15 ar
    29   14   27 1
    30   15   16 ar
    31   15   38 1
    32   16   17 ar
    33   16   39 1
    34   17   18 1
    35   18   19 1
    36   19   20 1
    37   19   40 1
    38   20   25 ar
    39   20   21 ar
    40   21   22 ar
    41   21   41 1
    42   22   23 ar
    43   22   42 1
    44   23   24 ar
    45   23   43 1
    46   24   25 ar
    47   24   26 1
    48   25   44 1
    49   28   45 1
    50   28   46 1
    51   28   47 1
    52   29   48 1
    53   29   49 1
    54   29   50 1
@<TRIPOS>MOLECULE
CHEMBL416411__1
   50    54     0     0     0
SMALL
USER_CHARGES

@<TRIPOS>ATOM
      1 C1         -0.4221    1.9225    0.0469 C.3       1 <0>        -0.1246
      2 C2         -0.3396    0.4355   -0.1752 C.2       1 <0>        -0.0654
      3 C3         -0.5706    0.0228   -1.4247 C.2       1 <0>        -0.1710
      4 C4         -0.5077   -1.4297   -1.7970 C.3       1 <0>         0.2107
      5 N1          0.4415   -2.1125   -0.9128 N.pl3     1 <0>        -0.7329
      6 C5          0.4387   -1.8085    0.4480 C.ar      1 <0>         0.2286
      7 C6         -0.0192   -0.5395    0.8792 C.ar      1 <0>        -0.0881
      8 C7         -0.1852   -0.3361    2.2419 C.ar      1 <0>        -0.0500
      9 C8          0.2811   -1.3050    3.1444 C.ar      1 <0>        -0.0907
     10 C9          0.8944   -2.4692    2.6978 C.ar      1 <0>        -0.0495
     11 C10         0.9652   -2.7202    1.3445 C.ar      1 <0>        -0.1803
     12 C11         0.0651   -1.0921    4.5958 C.ar      1 <0>        -0.0617
     13 C12         0.7718   -1.8070    5.5533 C.ar      1 <0>        -0.1202
     14 C13         0.5374   -1.5675    6.8965 C.ar      1 <0>         0.0808
     15 C14        -0.3949   -0.6187    7.2846 C.ar      1 <0>        -0.1268
     16 C15        -1.1012    0.0981    6.3352 C.ar      1 <0>        -0.1056
     17 C16        -0.8763   -0.1356    4.9924 C.ar      1 <0>         0.1087
     18 O1         -1.5570    0.5359    4.0281 O.3       1 <0>        -0.2984
     19 C17        -0.8257    0.8864    2.8434 C.3       1 <0>         0.1816
     20 C18         0.2409    1.8750    3.2386 C.ar      1 <0>        -0.1110
     21 C19        -0.0146    2.8102    4.2245 C.ar      1 <0>        -0.0898
     22 C20         0.9631    3.7172    4.5875 C.ar      1 <0>        -0.1066
     23 C21         2.1969    3.6902    3.9647 C.ar      1 <0>        -0.1020
     24 C22         2.4531    2.7548    2.9783 C.ar      1 <0>        -0.0369
     25 C23         1.4760    1.8431    2.6196 C.ar      1 <0>        -0.0878
     26 Cl1         4.0024    2.7202    2.1958 Cl        1 <0>        -0.0670
     27 F1          1.2216   -2.2614    7.8325 F         1 <0>        -0.1380
     28 C24        -0.0406   -1.5664   -3.2482 C.3       1 <0>        -0.1534
     29 C25        -1.8934   -2.0612   -1.6502 C.3       1 <0>        -0.1581
     30 H1          0.5078    2.2753    0.4930 H         1 <0>         0.0729
     31 H2         -0.5804    2.4242   -0.9077 H         1 <0>         0.0718
     32 H3         -1.2533    2.1444    0.7163 H         1 <0>         0.0696
     33 H4         -0.8083    0.7602   -2.1776 H         1 <0>         0.1259
     34 H5          1.0643   -2.7690   -1.2694 H         1 <0>         0.4040
     35 H6          1.3105   -3.1714    3.4041 H         1 <0>         0.1314
     36 H7          1.4298   -3.6263    0.9815 H         1 <0>         0.1304
     37 H8          1.5028   -2.5439    5.2560 H         1 <0>         0.1399
     38 H9         -0.5714   -0.4369    8.3341 H         1 <0>         0.1430
     39 H10        -1.8258    0.8362    6.6455 H         1 <0>         0.1435
     40 H11        -1.5336    1.3348    2.1585 H         1 <0>         0.1403
     41 H12        -0.9787    2.8321    4.7109 H         1 <0>         0.1350
     42 H13         0.7629    4.4474    5.3576 H         1 <0>         0.1359
     43 H14         2.9606    4.3994    4.2479 H         1 <0>         0.1348
     44 H15         1.6769    1.1097    1.8527 H         1 <0>         0.1373
     45 H16         0.9486   -1.1213   -3.3550 H         1 <0>         0.0638
     46 H17         0.0047   -2.6216   -3.5175 H         1 <0>         0.0642
     47 H18        -0.7427   -1.0535   -3.9056 H         1 <0>         0.0755
     48 H19        -2.5970   -1.5503   -2.3075 H         1 <0>         0.0675
     49 H20        -1.8427   -3.1157   -1.9215 H         1 <0>         0.0608
     50 H21        -2.2277   -1.9676   -0.6170 H         1 <0>         0.0579
@<TRIPOS>BOND
     1    1    2 1
     2    1   30 1
     3    1   31 1
     4    1   32 1
     5    2    7 1
     6    2    3 2
     7    3    4 1
     8    3   33 1
     9    4    5 1
    10    4   28 1
    11    4   29 1
    12    5    6 1
    13    5   34 1
    14    6   11 ar
    15    6    7 ar
    16    7    8 ar
    17    8   19 1
    18    8    9 ar
    19    9   10 ar
    20    9   12 1
    21   10   11 ar
    22   10   35 1
    23   11   36 1
    24   12   17 ar
    25   12   13 ar
    26   13   14 ar
    27   13   37 1
    28   14   15 ar
    29   14   27 1
    30   15   16 ar
    31   15   38 1
    32   16   17 ar
    33   16   39 1
    34   17   18 1
    35   18   19 1
    36   19   20 1
    37   19   40 1
    38   20   25 ar
    39   20   21 ar
    40   21   22 ar
    41   21   41 1
    42   22   23 ar
    43   22   42 1
    44   23   24 ar
    45   23   43 1
    46   24   25 ar
    47   24   26 1
    48   25   44 1
    49   28   45 1
    50   28   46 1
    51   28   47 1
    52   29   48 1
    53   29   49 1
    54   29   50 1
@<TRIPOS>MOLECULE
CHEMBL49754
   39    40     0     0     0
SMALL
USER_CHARGES

@<TRIPOS>ATOM
      1 C1          0.1323    1.5900    1.2364 C.3       1 <0>        -0.1240
      2 C2          0.1868    0.1617    0.7589 C.2       1 <0>        -0.0967
      3 C3          0.2182   -0.0643   -0.5427 C.2       1 <0>        -0.1332
      4 C4          0.2625   -1.4439   -1.0639 C.2       1 <0>        -0.0836
      5 C5          0.0724   -1.6980   -2.3541 C.2       1 <0>        -0.1719
      6 C6          0.5328   -2.5607   -0.0763 C.3       1 <0>        -0.0418
      7 C7         -0.2795   -2.2546    1.1903 C.3       1 <0>        -0.0376
      8 C8          0.2087   -0.9321    1.7845 C.3       1 <0>        -0.0818
      9 C9         -1.7630   -2.1439    0.8326 C.3       1 <0>        -0.1398
     10 C10        -0.0795   -3.3773    2.2104 C.3       1 <0>        -0.1511
     11 S1          2.3014   -2.6173    0.3230 S.3       1 <0>        -0.0494
     12 C11         3.0363   -3.3524   -1.0997 C.ar      1 <0>        -0.0415
     13 C12         2.2338   -3.8751   -2.1068 C.ar      1 <0>        -0.1402
     14 C13         2.8133   -4.4505   -3.2203 C.ar      1 <0>        -0.0303
     15 C14         4.1905   -4.5070   -3.3340 C.ar      1 <0>        -0.0613
     16 C15         4.9922   -3.9883   -2.3336 C.ar      1 <0>        -0.0323
     17 C16         4.4198   -3.4058   -1.2201 C.ar      1 <0>        -0.1038
     18 N1          4.8078   -5.1246   -4.5290 N.pl3     1 <0>         0.0358
     19 O1          4.1083   -5.5788   -5.4043 O.2       1 <0>        -0.1608
     20 O2          6.0115   -5.1748   -4.6300 O.3       1 <0>        -0.1589
     21 H1          1.1462    1.9686    1.3661 H         1 <0>         0.0713
     22 H2         -0.3917    2.1995    0.5003 H         1 <0>         0.0659
     23 H3         -0.3968    1.6349    2.1883 H         1 <0>         0.0654
     24 H4          0.2110    0.7680   -1.2309 H         1 <0>         0.1200
     25 H5         -0.0241   -0.8833   -3.0565 H         1 <0>         0.1116
     26 H6          0.0144   -2.7193   -2.7005 H         1 <0>         0.1028
     27 H7          0.2162   -3.5143   -0.4987 H         1 <0>         0.1042
     28 H8          1.2272   -1.0563    2.1526 H         1 <0>         0.0834
     29 H9         -0.4392   -0.6551    2.6161 H         1 <0>         0.0828
     30 H10        -2.1040   -3.0852    0.4017 H         1 <0>         0.0580
     31 H11        -2.3385   -1.9267    1.7325 H         1 <0>         0.0649
     32 H12        -1.9033   -1.3410    0.1089 H         1 <0>         0.0659
     33 H13         0.9774   -3.4515    2.4664 H         1 <0>         0.0673
     34 H14        -0.6566   -3.1589    3.1089 H         1 <0>         0.0658
     35 H15        -0.4168   -4.3213    1.7825 H         1 <0>         0.0615
     36 H16         1.1583   -3.8316   -2.0185 H         1 <0>         0.1472
     37 H17         2.1903   -4.8572   -4.0031 H         1 <0>         0.1558
     38 H18         6.0673   -4.0345   -2.4256 H         1 <0>         0.1587
     39 H19         5.0465   -2.9963   -0.4417 H         1 <0>         0.1515
@<TRIPOS>BOND
     1    1    2 1
     2    1   21 1
     3    1   22 1
     4    1   23 1
     5    2    8 1
     6    2    3 2
     7    3    4 1
     8    3   24 1
     9    4    5 2
    10    4    6 1
    11    5   25 1
    12    5   26 1
    13    6    7 1
    14    6   11 1
    15    6   27 1
    16    7    8 1
    17    7    9 1
    18    7   10 1
    19    8   28 1
    20    8   29 1
    21    9   30 1
    22    9   31 1
    23    9   32 1
    24   10   33 1
    25   10   34 1
    26   10   35 1
    27   11   12 1
    28   12   17 ar
    29   12   13 ar
    30   13   14 ar
    31   13   36 1
    32   14   15 ar
    33   14   37 1
    34   15   16 ar
    35   15   18 1
    36   16   17 ar
    37   16   38 1
    38   17   39 1
    39   18   19 2
    40   18   20 1
@<TRIPOS>MOLECULE
CHEMBL49754__1
   39    40     0     0     0
SMALL
USER_CHARGES

@<TRIPOS>ATOM
      1 C1         -0.1676    1.4699    0.4500 C.3       1 <0>        -0.1238
      2 C2         -0.1020   -0.0259    0.2793 C.2       1 <0>        -0.0961
      3 C3         -0.0757   -0.5173   -0.9471 C.2       1 <0>        -0.1338
      4 C4         -0.0012   -1.9739   -1.1703 C.2       1 <0>        -0.0836
      5 C5          0.2485   -2.4729   -2.3762 C.2       1 <0>        -0.1722
      6 C6         -0.2189   -2.8807    0.0238 C.3       1 <0>        -0.0414
      7 C7          0.5283   -2.2567    1.2113 C.3       1 <0>        -0.0378
      8 C8         -0.0637   -0.8824    1.5097 C.3       1 <0>        -0.0819
      9 C9          0.3801   -3.1570    2.4394 C.3       1 <0>        -0.1509
     10 C10         2.0100   -2.1053    0.8612 C.3       1 <0>        -0.1402
     11 S1         -1.9901   -2.9933    0.3989 S.3       1 <0>        -0.0494
     12 C11        -2.6259   -4.0507   -0.8590 C.ar      1 <0>        -0.0413
     13 C12        -1.7569   -4.7040   -1.7246 C.ar      1 <0>        -0.1403
     14 C13        -2.2588   -5.5319   -2.7093 C.ar      1 <0>        -0.0303
     15 C14        -3.6244   -5.7112   -2.8346 C.ar      1 <0>        -0.0613
     16 C15        -4.4922   -5.0623   -1.9752 C.ar      1 <0>        -0.0323
     17 C16        -3.9973   -4.2377   -0.9842 C.ar      1 <0>        -0.1039
     18 N1         -4.1584   -6.5993   -3.8912 N.pl3     1 <0>         0.0359
     19 O1         -3.4012   -7.1670   -4.6435 O.2       1 <0>        -0.1607
     20 O2         -5.3519   -6.7571   -4.0021 O.3       1 <0>        -0.1590
     21 H1          0.8433    1.8757    0.4905 H         1 <0>         0.0709
     22 H2         -0.7016    1.9087   -0.3929 H         1 <0>         0.0658
     23 H3         -0.6918    1.7074    1.3757 H         1 <0>         0.0661
     24 H4         -0.1093    0.1529   -1.7932 H         1 <0>         0.1200
     25 H5          0.3095   -1.8152   -3.2307 H         1 <0>         0.1116
     26 H6          0.3903   -3.5361   -2.5019 H         1 <0>         0.1029
     27 H7          0.1807   -3.8729   -0.1860 H         1 <0>         0.1043
     28 H8          0.5415   -0.3886    2.2700 H         1 <0>         0.0835
     29 H9         -1.0778   -1.0089    1.8886 H         1 <0>         0.0829
     30 H10         0.7998   -4.1394    2.2226 H         1 <0>         0.0616
     31 H11         0.9109   -2.7130    3.2816 H         1 <0>         0.0659
     32 H12        -0.6759   -3.2601    2.6891 H         1 <0>         0.0673
     33 H13         2.1131   -1.4604   -0.0115 H         1 <0>         0.0657
     34 H14         2.5393   -1.6623    1.7048 H         1 <0>         0.0649
     35 H15         2.4333   -3.0853    0.6408 H         1 <0>         0.0578
     36 H16        -0.6904   -4.5642   -1.6276 H         1 <0>         0.1473
     37 H17        -1.5841   -6.0397   -3.3826 H         1 <0>         0.1558
     38 H18        -5.5580   -5.2043   -2.0762 H         1 <0>         0.1586
     39 H19        -4.6753   -3.7354   -0.3102 H         1 <0>         0.1515
@<TRIPOS>BOND
     1    1    2 1
     2    1   21 1
     3    1   22 1
     4    1   23 1
     5    2    8 1
     6    2    3 2
     7    3    4 1
     8    3   24 1
     9    4    5 2
    10    4    6 1
    11    5   25 1
    12    5   26 1
    13    6    7 1
    14    6   11 1
    15    6   27 1
    16    7    8 1
    17    7    9 1
    18    7   10 1
    19    8   28 1
    20    8   29 1
    21    9   30 1
    22    9   31 1
    23    9   32 1
    24   10   33 1
    25   10   34 1
    26   10   35 1
    27   11   12 1
    28   12   17 ar
    29   12   13 ar
    30   13   14 ar
    31   13   36 1
    32   14   15 ar
    33   14   37 1
    34   15   16 ar
    35   15   18 1
    36   16   17 ar
    37   16   38 1
    38   17   39 1
    39   18   19 2
    40   18   20 1
@<TRIPOS>MOLECULE
CHEMBL438506
   43    45     0     0     0
SMALL
USER_CHARGES

@<TRIPOS>ATOM
      1 C1         -0.0273    3.5727    1.0036 C.3       1 <0>        -0.1502
      2 C2          0.4608    2.1229    0.9739 C.3       1 <0>        -0.1433
      3 C3         -0.7307    1.1880    0.7569 C.3       1 <0>         0.1642
      4 C4         -0.2296   -0.2494    0.6027 C.3       1 <0>        -0.1434
      5 C5         -1.4064   -1.1659    0.2621 C.3       1 <0>        -0.1502
      6 N1         -1.6319    1.2700    1.9091 N.am      1 <0>        -0.5261
      7 C6         -2.9694    1.6591    1.8725 C.ar      1 <0>         0.1038
      8 C7         -3.8123    2.0581    0.8504 C.ar      1 <0>        -0.0806
      9 C8         -5.1359    2.3941    1.1364 C.ar      1 <0>        -0.0131
     10 C9         -5.6048    2.3266    2.4519 C.ar      1 <0>        -0.1165
     11 C10        -4.7626    1.9290    3.4668 C.ar      1 <0>        -0.0968
     12 C11        -3.4446    1.5938    3.1855 C.ar      1 <0>         0.0933
     13 N2         -2.3816    1.1676    3.9765 N.am      1 <0>        -0.6441
     14 H1         -2.4088    1.0278    4.9360 H         1 <0>         0.4350
     15 C12        -1.3109    0.9767    3.1832 C.2       1 <0>         0.6834
     16 O1         -0.2176    0.5993    3.5610 O.2       1 <0>        -0.5474
     17 C13        -6.0413    2.8214    0.0501 C.2       1 <0>         0.0969
     18 C14        -5.6532    3.3289   -1.1707 C.2       1 <0>        -0.1774
     19 C15        -6.8086    3.6053   -1.9006 C.2       1 <0>        -0.1073
     20 C16        -7.8889    3.2616   -1.1123 C.2       1 <0>         0.0558
     21 N3         -7.4065    2.7754    0.0820 N.pl3     1 <0>        -0.4143
     22 C17        -8.2203    2.2930    1.2006 C.3       1 <0>         0.0553
     23 C18        -9.2687    3.3836   -1.4756 C.1       1 <0>         0.2766
     24 N4        -10.3633    3.4804   -1.7638 N.1       1 <0>        -0.4039
     25 H2          0.8216    4.2388    1.1581 H         1 <0>         0.0588
     26 H3         -0.5099    3.8130    0.0563 H         1 <0>         0.0564
     27 H4         -0.7412    3.6991    1.8175 H         1 <0>         0.0502
     28 H5          1.1747    1.9965    0.1600 H         1 <0>         0.0827
     29 H6          0.9435    1.8826    1.9212 H         1 <0>         0.0822
     30 H7         -1.2660    1.4849   -0.1449 H         1 <0>         0.1003
     31 H8          0.5084   -0.2929   -0.1982 H         1 <0>         0.0827
     32 H9          0.2277   -0.5769    1.5363 H         1 <0>         0.0823
     33 H10        -2.1445   -1.1224    1.0630 H         1 <0>         0.0497
     34 H11        -1.8637   -0.8384   -0.6715 H         1 <0>         0.0562
     35 H12        -1.0495   -2.1899    0.1522 H         1 <0>         0.0587
     36 H13        -3.4471    2.1096   -0.1647 H         1 <0>         0.1381
     37 H14        -6.6293    2.5872    2.6728 H         1 <0>         0.1366
     38 H15        -5.1275    1.8781    4.4820 H         1 <0>         0.1357
     39 H16        -4.6373    3.4849   -1.5023 H         1 <0>         0.1523
     40 H17        -6.8509    4.0141   -2.8993 H         1 <0>         0.1540
     41 H18        -8.3579    3.0974    1.9232 H         1 <0>         0.0864
     42 H19        -9.1922    1.9681    0.8292 H         1 <0>         0.0876
     43 H20        -7.7164    1.4547    1.6816 H         1 <0>         0.0994
@<TRIPOS>BOND
     1    1    2 1
     2    1   25 1
     3    1   26 1
     4    1   27 1
     5    2    3 1
     6    2   28 1
     7    2   29 1
     8    3    4 1
     9    3    6 1
    10    3   30 1
    11    4    5 1
    12    4   31 1
    13    4   32 1
    14    5   33 1
    15    5   34 1
    16    5   35 1
    17    6   15 am
    18    6    7 1
    19    7   12 ar
    20    7    8 ar
    21    8    9 ar
    22    8   36 1
    23    9   10 ar
    24    9   17 1
    25   10   11 ar
    26   10   37 1
    27   11   12 ar
    28   11   38 1
    29   12   13 1
    30   13   14 1
    31   13   15 am
    32   15   16 2
    33   17   21 1
    34   17   18 2
    35   18   19 1
    36   18   39 1
    37   19   20 2
    38   19   40 1
    39   20   21 1
    40   20   23 1
    41   21   22 1
    42   22   41 1
    43   22   42 1
    44   22   43 1
    45   23   24 3
@<TRIPOS>MOLECULE
CHEMBL1085381
   55    58     0     0     0
SMALL
USER_CHARGES

@<TRIPOS>ATOM
      1 C1          0.6560    0.9173    0.4089 C.3       1 <0>        -0.1522
      2 C2          0.7440   -0.6020    0.2509 C.3       1 <0>        -0.1031
      3 C3         -0.6508   -1.2121    0.4027 C.3       1 <0>        -0.1493
      4 C4          1.3004   -0.9394   -1.1338 C.3       1 <0>         0.1159
      5 N1          2.6804   -0.4585   -1.2361 N.pl3     1 <0>        -1.1145
      6 S1          3.6564   -0.9972   -2.4607 S.o2      1 <0>         2.6954
      7 O1          4.9051   -0.3371   -2.3051 O.2       1 <0>        -0.9506
      8 O2          3.5404   -2.4133   -2.4794 O.2       1 <0>        -0.9476
      9 C5          2.9641   -0.4152   -3.9729 C.ar      1 <0>        -0.6841
     10 C6          2.0317   -1.1850   -4.6453 C.ar      1 <0>         0.0132
     11 C7          1.4860   -0.7339   -5.8298 C.ar      1 <0>        -0.1279
     12 C8          1.8756    0.4996   -6.3483 C.ar      1 <0>         0.0746
     13 C9          2.8149    1.2706   -5.6670 C.ar      1 <0>        -0.1980
     14 C10         3.3504    0.8120   -4.4802 C.ar      1 <0>         0.0328
     15 C11         3.2411    2.6055   -6.2215 C.3       1 <0>         0.5113
     16 F1          4.0621    3.2553   -5.2936 F         1 <0>        -0.1728
     17 F2          3.9474    2.4112   -7.4134 F         1 <0>        -0.1706
     18 F3          2.1097    3.3891   -6.4723 F         1 <0>        -0.1675
     19 C12         1.2926    0.9897   -7.6218 C.ar      1 <0>        -0.1263
     20 C13        -0.0929    1.1573   -7.7362 C.ar      1 <0>        -0.0362
     21 C14        -0.6461    1.6062   -8.8988 C.ar      1 <0>        -0.1378
     22 C15         0.1659    1.9045   -9.9911 C.ar      1 <0>         0.1415
     23 C16         1.5615    1.7407   -9.8893 C.ar      1 <0>        -0.1727
     24 C17         2.1216    1.2855   -8.6924 C.ar      1 <0>        -0.0152
     25 C18         2.1161    2.1314  -11.1823 C.2       1 <0>         0.0961
     26 N2          1.1250    2.4854  -11.9503 N.2       1 <0>        -0.2432
     27 N3         -0.0855    2.3617  -11.2610 N.pl3     1 <0>        -0.3554
     28 C19        -1.3517    2.6566  -11.7829 C.ar      1 <0>         0.1538
     29 C20        -2.4535    1.9017  -11.4026 C.ar      1 <0>        -0.1093
     30 C21        -3.7009    2.1943  -11.9179 C.ar      1 <0>        -0.1275
     31 C22        -3.8534    3.2396  -12.8135 C.ar      1 <0>         0.0955
     32 C23        -2.7559    3.9936  -13.1940 C.ar      1 <0>        -0.1294
     33 C24        -1.5077    3.7079  -12.6767 C.ar      1 <0>        -0.0868
     34 F4         -5.0744    3.5237  -13.3171 F         1 <0>        -0.1332
     35 H1          1.6497    1.3520    0.3008 H         1 <0>         0.0558
     36 H2         -0.0040    1.3246   -0.3570 H         1 <0>         0.0581
     37 H3          0.2597    1.1577    1.3954 H         1 <0>         0.0603
     38 H4          1.4041   -1.0093    1.0168 H         1 <0>         0.0818
     39 H5         -1.3108   -0.8048   -0.3632 H         1 <0>         0.0583
     40 H6         -0.5881   -2.2945    0.2902 H         1 <0>         0.0601
     41 H7         -1.0472   -0.9717    1.3892 H         1 <0>         0.0622
     42 H8          1.2801   -2.0193   -1.2802 H         1 <0>         0.0837
     43 H9          0.6902   -0.4576   -1.8978 H         1 <0>         0.0672
     44 H10         3.0225    0.1754   -0.5864 H         1 <0>         0.4211
     45 H11         1.7308   -2.1409   -4.2427 H         1 <0>         0.1538
     46 H12         0.7585   -1.3357   -6.3541 H         1 <0>         0.1498
     47 H13         4.0756    1.4107   -3.9491 H         1 <0>         0.1576
     48 H14        -0.7301    0.9283   -6.8948 H         1 <0>         0.1380
     49 H15        -1.7164    1.7306   -8.9733 H         1 <0>         0.1356
     50 H16         3.1907    1.1608   -8.6040 H         1 <0>         0.1507
     51 H17         3.1615    2.1278  -11.4536 H         1 <0>         0.2072
     52 H18        -2.3349    1.0860  -10.7048 H         1 <0>         0.1414
     53 H19        -4.5581    1.6075  -11.6224 H         1 <0>         0.1475
     54 H20        -2.8769    4.8083  -13.8925 H         1 <0>         0.1470
     55 H21        -0.6528    4.2988  -12.9705 H         1 <0>         0.1439
@<TRIPOS>BOND
     1    1    2 1
     2    1   35 1
     3    1   36 1
     4    1   37 1
     5    2    3 1
     6    2    4 1
     7    2   38 1
     8    3   39 1
     9    3   40 1
    10    3   41 1
    11    4    5 1
    12    4   42 1
    13    4   43 1
    14    5    6 1
    15    5   44 1
    16    6    7 2
    17    6    8 2
    18    6    9 1
    19    9   14 ar
    20    9   10 ar
    21   10   11 ar
    22   10   45 1
    23   11   12 ar
    24   11   46 1
    25   12   13 ar
    26   12   19 1
    27   13   14 ar
    28   13   15 1
    29   14   47 1
    30   15   16 1
    31   15   17 1
    32   15   18 1
    33   19   24 ar
    34   19   20 ar
    35   20   21 ar
    36   20   48 1
    37   21   22 ar
    38   21   49 1
    39   22   27 1
    40   22   23 ar
    41   23   24 ar
    42   23   25 1
    43   24   50 1
    44   25   26 2
    45   25   51 1
    46   26   27 1
    47   27   28 1
    48   28   33 ar
    49   28   29 ar
    50   29   30 ar
    51   29   52 1
    52   30   31 ar
    53   30   53 1
    54   31   32 ar
    55   31   34 1
    56   32   33 ar
    57   32   54 1
    58   33   55 1
@<TRIPOS>MOLECULE
CHEMBL219314
   56    58     0     0     0
SMALL
USER_CHARGES

@<TRIPOS>ATOM
      1 C1          0.6004    0.8722    0.3485 C.3       1 <0>        -0.1495
      2 C2         -0.5636    0.3813   -0.5146 C.3       1 <0>        -0.0138
      3 C3         -0.0492   -0.6390   -1.5321 C.3       1 <0>        -0.1358
      4 C4         -1.6186   -0.2757    0.3777 C.3       1 <0>        -0.1534
      5 C5         -1.6878    0.4642    1.7151 C.3       1 <0>         0.0775
      6 C6         -2.6522   -0.2655    2.6523 C.3       1 <0>         0.0930
      7 N1         -2.6907    0.4222    3.9453 N.pl3     1 <0>        -0.6192
      8 C7         -1.5618    0.3018    4.8756 C.3       1 <0>         0.1405
      9 C8         -2.1038   -0.0383    6.2715 C.3       1 <0>        -0.1840
     10 C9         -3.0827    1.0501    6.6657 C.2       1 <0>         0.4044
     11 O1         -3.0884    1.5157    7.7859 O.2       1 <0>        -0.4572
     12 C10        -4.0247    1.5207    5.6394 C.ar      1 <0>        -0.2411
     13 C11        -3.7916    1.1927    4.2896 C.ar      1 <0>         0.2672
     14 C12        -4.6723    1.6401    3.3139 C.ar      1 <0>        -0.2168
     15 C13        -5.7656    2.4035    3.6708 C.ar      1 <0>        -0.0402
     16 C14        -5.9967    2.7309    4.9982 C.ar      1 <0>        -0.1838
     17 C15        -5.1378    2.2892    5.9876 C.ar      1 <0>        -0.0192
     18 C16        -2.1852    1.8923    1.4827 C.3       1 <0>         0.4649
     19 F1         -3.4163    1.8552    0.8192 F         1 <0>        -0.1706
     20 F2         -2.3382    2.5390    2.7137 F         1 <0>        -0.1649
     21 F3         -1.2558    2.5886    0.7025 F         1 <0>        -0.1530
     22 O2         -0.3873    0.5030    2.3060 O.3       1 <0>        -0.5210
     23 C17        -1.1777    1.5498   -1.2415 C.ar      1 <0>        -0.0599
     24 C18        -2.5359    1.5701   -1.4944 C.ar      1 <0>        -0.1387
     25 C19        -3.1004    2.6436   -2.1617 C.ar      1 <0>         0.0714
     26 C20        -2.3049    3.6982   -2.5771 C.ar      1 <0>        -0.1236
     27 C21        -0.9468    3.6805   -2.3256 C.ar      1 <0>        -0.1757
     28 C22        -0.3807    2.6080   -1.6519 C.ar      1 <0>         0.1265
     29 O3          0.9549    2.5919   -1.3988 O.3       1 <0>        -0.2939
     30 C23         1.7143    3.7151   -1.8503 C.3       1 <0>         0.0150
     31 F4         -4.4286    2.6622   -2.4083 F         1 <0>        -0.1401
     32 H1          1.4274    1.1737   -0.2942 H         1 <0>         0.0672
     33 H2          0.2756    1.7238    0.9463 H         1 <0>         0.0913
     34 H3          0.9274    0.0687    1.0085 H         1 <0>         0.0567
     35 H4          0.3156   -1.5225   -1.0081 H         1 <0>         0.0611
     36 H5         -0.8597   -0.9234   -2.2031 H         1 <0>         0.0552
     37 H6          0.7631   -0.1981   -2.1099 H         1 <0>         0.0635
     38 H7         -2.5903   -0.2293   -0.1139 H         1 <0>         0.0939
     39 H8         -1.3491   -1.3174    0.5523 H         1 <0>         0.0982
     40 H9         -3.6502   -0.2713    2.2140 H         1 <0>         0.1027
     41 H10        -2.3127   -1.2912    2.7963 H         1 <0>         0.1008
     42 H11        -0.8946   -0.4919    4.5395 H         1 <0>         0.0912
     43 H12        -1.0185    1.2460    4.9148 H         1 <0>         0.0739
     44 H13        -2.6136   -1.0014    6.2451 H         1 <0>         0.1040
     45 H14        -1.2830   -0.0737    6.9878 H         1 <0>         0.1047
     46 H15        -4.5019    1.3913    2.2769 H         1 <0>         0.1341
     47 H16        -6.4476    2.7496    2.9083 H         1 <0>         0.1259
     48 H17        -6.8567    3.3286    5.2619 H         1 <0>         0.1260
     49 H18        -5.3193    2.5453    7.0210 H         1 <0>         0.1317
     50 H19        -0.0090   -0.3694    2.4818 H         1 <0>         0.3879
     51 H20        -3.1574    0.7480   -1.1716 H         1 <0>         0.1430
     52 H21        -2.7465    4.5348   -3.0982 H         1 <0>         0.1357
     53 H22        -0.3265    4.5030   -2.6500 H         1 <0>         0.1366
     54 H23         2.7623    3.5755   -1.5849 H         1 <0>         0.1005
     55 H24         1.6224    3.8044   -2.9327 H         1 <0>         0.0544
     56 H25         1.3376    4.6221   -1.3776 H         1 <0>         0.0551
@<TRIPOS>BOND
     1    1    2 1
     2    1   32 1
     3    1   33 1
     4    1   34 1
     5    2    3 1
     6    2    4 1
     7    2   23 1
     8    3   35 1
     9    3   36 1
    10    3   37 1
    11    4    5 1
    12    4   38 1
    13    4   39 1
    14    5    6 1
    15    5   18 1
    16    5   22 1
    17    6    7 1
    18    6   40 1
    19    6   41 1
    20    7   13 1
    21    7    8 1
    22    8    9 1
    23    8   42 1
    24    8   43 1
    25    9   10 1
    26    9   44 1
    27    9   45 1
    28   10   11 2
    29   10   12 1
    30   12   17 ar
    31   12   13 ar
    32   13   14 ar
    33   14   15 ar
    34   14   46 1
    35   15   16 ar
    36   15   47 1
    37   16   17 ar
    38   16   48 1
    39   17   49 1
    40   18   19 1
    41   18   20 1
    42   18   21 1
    43   22   50 1
    44   23   28 ar
    45   23   24 ar
    46   24   25 ar
    47   24   51 1
    48   25   26 ar
    49   25   31 1
    50   26   27 ar
    51   26   52 1
    52   27   28 ar
    53   27   53 1
    54   28   29 1
    55   29   30 1
    56   30   54 1
    57   30   55 1
    58   30   56 1
@<TRIPOS>MOLECULE
CHEMBL219314__1
   56    58     0     0     0
SMALL
USER_CHARGES

@<TRIPOS>ATOM
      1 C1         -0.1532    0.6648   -1.8977 C.3       1 <0>        -0.1371
      2 C2         -0.3631    0.8494   -0.3934 C.3       1 <0>        -0.0109
      3 C3         -0.6471    2.3229   -0.0951 C.3       1 <0>        -0.1539
      4 C4         -1.5495   -0.0014    0.0641 C.3       1 <0>        -0.1548
      5 C5         -2.2095    0.6549    1.2784 C.3       1 <0>         0.0775
      6 C6         -3.4605   -0.1352    1.6681 C.3       1 <0>         0.0899
      7 N1         -4.1271    0.5285    2.7912 N.pl3     1 <0>        -0.6213
      8 C7         -5.0503    1.6424    2.5436 C.3       1 <0>         0.1390
      9 C8         -4.6949    2.8000    3.4878 C.3       1 <0>        -0.1803
     10 C9         -4.7657    2.2767    4.9088 C.2       1 <0>         0.4048
     11 O1         -5.2782    2.9283    5.7945 O.2       1 <0>        -0.4590
     12 C10        -4.1904    0.9496    5.1733 C.ar      1 <0>        -0.2347
     13 C11        -3.8910    0.1013    4.0896 C.ar      1 <0>         0.2667
     14 C12        -3.3549   -1.1564    4.3318 C.ar      1 <0>        -0.2082
     15 C13        -3.1222   -1.5677    5.6287 C.ar      1 <0>        -0.0388
     16 C14        -3.4184   -0.7365    6.6983 C.ar      1 <0>        -0.1841
     17 C15        -3.9448    0.5234    6.4806 C.ar      1 <0>        -0.0183
     18 C16        -1.2263    0.6638    2.4506 C.3       1 <0>         0.4634
     19 F1         -0.0625    1.3448    2.0779 F         1 <0>        -0.1527
     20 F2         -1.8124    1.3069    3.5461 F         1 <0>        -0.1641
     21 F3         -0.9049   -0.6523    2.7997 F         1 <0>        -0.1710
     22 O2         -2.5759    1.9974    0.9539 O.3       1 <0>        -0.5184
     23 C17         0.8785    0.4178    0.3437 C.ar      1 <0>        -0.0486
     24 C18         0.8515   -0.7095    1.1421 C.ar      1 <0>        -0.1573
     25 C19         1.9919   -1.1065    1.8190 C.ar      1 <0>         0.0748
     26 C20         3.1610   -0.3743    1.6974 C.ar      1 <0>        -0.1271
     27 C21         3.1908    0.7531    0.8999 C.ar      1 <0>        -0.1715
     28 C22         2.0502    1.1488    0.2164 C.ar      1 <0>         0.1169
     29 O3          2.0796    2.2550   -0.5732 O.3       1 <0>        -0.3019
     30 C23         3.3202    2.9591   -0.6575 C.3       1 <0>         0.0210
     31 F4          1.9642   -2.2090    2.5994 F         1 <0>        -0.1394
     32 H1          0.6334    1.3373   -2.2400 H         1 <0>         0.0694
     33 H2          0.1366   -0.3662   -2.1003 H         1 <0>         0.0532
     34 H3         -1.0800    0.8920   -2.4244 H         1 <0>         0.0594
     35 H4         -1.5756    2.6199   -0.5827 H         1 <0>         0.0592
     36 H5         -0.7408    2.4641    0.9816 H         1 <0>         0.0929
     37 H6          0.1729    2.9344   -0.4718 H         1 <0>         0.0598
     38 H7         -2.2748   -0.0791   -0.7459 H         1 <0>         0.0984
     39 H8         -1.1993   -0.9975    0.3350 H         1 <0>         0.0943
     40 H9         -4.1407   -0.1812    0.8176 H         1 <0>         0.1038
     41 H10        -3.1755   -1.1458    1.9605 H         1 <0>         0.1034
     42 H11        -4.9553    1.9725    1.5091 H         1 <0>         0.0917
     43 H12        -6.0735    1.3177    2.7328 H         1 <0>         0.0677
     44 H13        -3.6863    3.1540    3.2745 H         1 <0>         0.1119
     45 H14        -5.4079    3.6143    3.3583 H         1 <0>         0.1021
     46 H15        -3.1207   -1.8122    3.5063 H         1 <0>         0.1263
     47 H16        -2.7055   -2.5470    5.8123 H         1 <0>         0.1266
     48 H17        -3.2302   -1.0722    7.7074 H         1 <0>         0.1261
     49 H18        -4.1752    1.1694    7.3148 H         1 <0>         0.1314
     50 H19        -3.2577    2.0650    0.2714 H         1 <0>         0.3839
     51 H20        -0.0598   -1.2810    1.2384 H         1 <0>         0.1543
     52 H21         4.0498   -0.6847    2.2266 H         1 <0>         0.1357
     53 H22         4.1026    1.3241    0.8055 H         1 <0>         0.1366
     54 H23         3.2060    3.8187   -1.3180 H         1 <0>         0.1010
     55 H24         3.6125    3.3004    0.3356 H         1 <0>         0.0553
     56 H25         4.0884    2.2955   -1.0543 H         1 <0>         0.0551
@<TRIPOS>BOND
     1    1    2 1
     2    1   32 1
     3    1   33 1
     4    1   34 1
     5    2    3 1
     6    2    4 1
     7    2   23 1
     8    3   35 1
     9    3   36 1
    10    3   37 1
    11    4    5 1
    12    4   38 1
    13    4   39 1
    14    5    6 1
    15    5   18 1
    16    5   22 1
    17    6    7 1
    18    6   40 1
    19    6   41 1
    20    7   13 1
    21    7    8 1
    22    8    9 1
    23    8   42 1
    24    8   43 1
    25    9   10 1
    26    9   44 1
    27    9   45 1
    28   10   11 2
    29   10   12 1
    30   12   17 ar
    31   12   13 ar
    32   13   14 ar
    33   14   15 ar
    34   14   46 1
    35   15   16 ar
    36   15   47 1
    37   16   17 ar
    38   16   48 1
    39   17   49 1
    40   18   19 1
    41   18   20 1
    42   18   21 1
    43   22   50 1
    44   23   28 ar
    45   23   24 ar
    46   24   25 ar
    47   24   51 1
    48   25   26 ar
    49   25   31 1
    50   26   27 ar
    51   26   52 1
    52   27   28 ar
    53   27   53 1
    54   28   29 1
    55   29   30 1
    56   30   54 1
    57   30   55 1
    58   30   56 1
@<TRIPOS>MOLECULE
CHEMBL567028
   58    62     0     0     0
SMALL
USER_CHARGES

@<TRIPOS>ATOM
      1 C1          1.1222    2.0365    3.8933 C.3       1 <0>        -0.1425
      2 C2          1.7700    0.6787    3.8044 C.2       1 <0>        -0.1037
      3 C3          3.0013    0.4493    4.3892 C.2       1 <0>        -0.1636
      4 C4          3.5563   -0.7834    4.2908 C.2       1 <0>        -0.1576
      5 S1          2.3249   -1.6687    3.3488 S.3       1 <0>         0.0676
      6 C5          1.1513   -0.3374    3.1547 C.2       1 <0>        -0.1988
      7 C6         -0.1808   -0.3418    2.4501 C.3       1 <0>         0.2283
      8 C7         -0.8620    1.0152    2.6387 C.3       1 <0>        -0.1929
      9 C8         -1.0655   -1.4427    3.0387 C.3       1 <0>        -0.0962
     10 H1         -2.0667   -1.3707    2.6138 H         1 <0>         0.0967
     11 C9         -0.4669   -2.8110    2.7059 C.3       1 <0>        -0.1334
     12 C10        -1.3967   -3.9239    3.1914 C.3       1 <0>        -0.1153
     13 C11        -1.5408   -3.8417    4.7162 C.3       1 <0>        -0.0907
     14 C12        -1.9652   -2.4385    5.0745 C.2       1 <0>        -0.0199
     15 C13        -3.0351   -2.2121    5.8192 C.2       1 <0>        -0.1414
     16 C14        -3.4865   -0.8623    6.1607 C.2       1 <0>         0.1136
     17 C15        -4.5422   -0.4104    6.9396 C.2       1 <0>         0.0846
     18 N1         -4.5136    0.9348    6.9121 N.pl3     1 <0>        -0.4648
     19 C16        -3.5144    1.3361    6.1759 C.cat     1 <0>         0.2872
     20 N2         -2.8486    0.2632    5.6987 N.pl3     1 <0>        -0.4047
     21 C17        -1.6557    0.1393    4.8508 C.3       1 <0>         0.0406
     22 C18        -1.1426   -1.2780    4.5568 C.3       1 <0>        -0.0259
     23 C19         0.2752   -1.4149    5.1155 C.3       1 <0>        -0.2176
     24 C20        -5.5201   -1.2526    7.6660 C.ar      1 <0>        -0.0743
     25 C21        -6.0937   -2.3584    7.0384 C.ar      1 <0>        -0.0517
     26 C22        -7.0041   -3.1397    7.7193 C.ar      1 <0>        -0.1472
     27 C23        -7.3491   -2.8276    9.0245 C.ar      1 <0>         0.1363
     28 C24        -6.7821   -1.7302    9.6524 C.ar      1 <0>        -0.1474
     29 C25        -5.8663   -0.9460    8.9820 C.ar      1 <0>        -0.0643
     30 F1         -8.2415   -3.5956    9.6870 F         1 <0>        -0.1230
     31 O1          0.0184   -0.5851    1.0562 O.3       1 <0>        -0.5385
     32 H2          0.5037    2.0860    4.7894 H         1 <0>         0.0647
     33 H3          1.8939    2.8047    3.9415 H         1 <0>         0.0744
     34 H4          0.5005    2.2007    3.0131 H         1 <0>         0.1011
     35 H5          3.5136    1.2406    4.9162 H         1 <0>         0.1401
     36 H6          4.4989   -1.1380    4.6807 H         1 <0>         0.1915
     37 H7         -0.4334    1.7366    1.9431 H         1 <0>         0.0989
     38 H8         -1.9302    0.9153    2.4463 H         1 <0>         0.0796
     39 H9         -0.7076    1.3602    3.6610 H         1 <0>         0.1014
     40 H10        -0.3350   -2.8951    1.6272 H         1 <0>         0.0863
     41 H11         0.5020   -2.9103    3.1954 H         1 <0>         0.0809
     42 H12        -2.3760   -3.8075    2.7271 H         1 <0>         0.0727
     43 H13        -0.9779   -4.8923    2.9178 H         1 <0>         0.0840
     44 H14        -2.2961   -4.5517    5.0531 H         1 <0>         0.0898
     45 H15        -0.5851   -4.0688    5.1887 H         1 <0>         0.0943
     46 H16        -3.5978   -3.0564    6.1892 H         1 <0>         0.1531
     47 H17        -3.2593    2.3668    5.9787 H         1 <0>         0.2626
     48 H18        -1.8719    0.6211    3.8972 H         1 <0>         0.1663
     49 H19        -0.8481    0.6956    5.3264 H         1 <0>         0.1166
     50 H20         0.8729   -0.5584    4.8038 H         1 <0>         0.1140
     51 H21         0.2346   -1.4527    6.2041 H         1 <0>         0.0578
     52 H22         0.7281   -2.3312    4.7368 H         1 <0>         0.0960
     53 H23        -5.8258   -2.6023    6.0209 H         1 <0>         0.1432
     54 H24        -7.4491   -3.9959    7.2341 H         1 <0>         0.1519
     55 H25        -7.0542   -1.4911   10.6698 H         1 <0>         0.1505
     56 H26        -5.4214   -0.0937    9.4739 H         1 <0>         0.1369
     57 H27         0.8153   -1.0950    0.8559 H         1 <0>         0.3870
     58 H28        -5.1401    1.5170    7.3698 H         1 <0>         0.4647
@<TRIPOS>BOND
     1    1    2 1
     2    1   32 1
     3    1   33 1
     4    1   34 1
     5    2    6 2
     6    2    3 1
     7    3    4 2
     8    3   35 1
     9    4    5 1
    10    4   36 1
    11    5    6 1
    12    6    7 1
    13    7    8 1
    14    7    9 1
    15    7   31 1
    16    8   37 1
    17    8   38 1
    18    8   39 1
    19    9   10 1
    20    9   22 1
    21    9   11 1
    22   11   12 1
    23   11   40 1
    24   11   41 1
    25   12   13 1
    26   12   42 1
    27   12   43 1
    28   13   14 1
    29   13   44 1
    30   13   45 1
    31   14   22 1
    32   14   15 2
    33   15   16 1
    34   15   46 1
    35   16   20 1
    36   16   17 2
    37   17   18 1
    38   17   24 1
    39   18   19 2
    40   18   58 1
    41   19   20 1
    42   19   47 1
    43   20   21 1
    44   21   22 1
    45   21   48 1
    46   21   49 1
    47   22   23 1
    48   23   50 1
    49   23   51 1
    50   23   52 1
    51   24   29 ar
    52   24   25 ar
    53   25   26 ar
    54   25   53 1
    55   26   27 ar
    56   26   54 1
    57   27   28 ar
    58   27   30 1
    59   28   29 ar
    60   28   55 1
    61   29   56 1
    62   31   57 1
@<TRIPOS>MOLECULE
CHEMBL567028__1
   57    61     0     0     0
SMALL
USER_CHARGES

@<TRIPOS>ATOM
      1 C1          1.1222    2.0365    3.8933 C.3       1 <0>        -0.1418
      2 C2          1.7700    0.6787    3.8044 C.2       1 <0>        -0.1096
      3 C3          3.0013    0.4493    4.3892 C.2       1 <0>        -0.1575
      4 C4          3.5563   -0.7834    4.2908 C.2       1 <0>        -0.1704
      5 S1          2.3249   -1.6687    3.3488 S.3       1 <0>         0.0585
      6 C5          1.1513   -0.3374    3.1547 C.2       1 <0>        -0.1772
      7 C6         -0.1808   -0.3418    2.4501 C.3       1 <0>         0.2267
      8 C7         -0.8620    1.0152    2.6387 C.3       1 <0>        -0.1877
      9 C8         -1.0655   -1.4427    3.0387 C.3       1 <0>        -0.0940
     10 H1         -2.0667   -1.3707    2.6138 H         1 <0>         0.0915
     11 C9         -0.4669   -2.8110    2.7059 C.3       1 <0>        -0.1284
     12 C10        -1.3967   -3.9239    3.1914 C.3       1 <0>        -0.1129
     13 C11        -1.5408   -3.8417    4.7162 C.3       1 <0>        -0.0782
     14 C12        -1.9652   -2.4385    5.0745 C.2       1 <0>        -0.0941
     15 C13        -3.0351   -2.2121    5.8192 C.2       1 <0>        -0.0899
     16 C14        -3.4865   -0.8623    6.1607 C.2       1 <0>         0.0229
     17 C15        -4.5422   -0.4104    6.9396 C.2       1 <0>         0.0548
     18 N1         -4.5136    0.9348    6.9121 N.2       1 <0>        -0.4720
     19 C16        -3.5144    1.3361    6.1759 C.2       1 <0>         0.1968
     20 N2         -2.8486    0.2632    5.6987 N.pl3     1 <0>        -0.4483
     21 C17        -1.6558    0.1393    4.8508 C.3       1 <0>         0.0551
     22 C18        -1.1426   -1.2780    4.5568 C.3       1 <0>        -0.0110
     23 C19         0.2752   -1.4149    5.1155 C.3       1 <0>        -0.2100
     24 C20        -5.5201   -1.2526    7.6660 C.ar      1 <0>        -0.0067
     25 C21        -5.9359   -2.4685    7.1233 C.ar      1 <0>        -0.0829
     26 C22        -6.8470   -3.2493    7.8038 C.ar      1 <0>        -0.1510
     27 C23        -7.3491   -2.8276    9.0245 C.ar      1 <0>         0.0963
     28 C24        -6.9392   -1.6206    9.5678 C.ar      1 <0>        -0.1516
     29 C25        -6.0242   -0.8353    8.8979 C.ar      1 <0>        -0.0655
     30 F1         -8.2415   -3.5957    9.6869 F         1 <0>        -0.1399
     31 O1          0.0184   -0.5851    1.0562 O.3       1 <0>        -0.5421
     32 H2          0.5037    2.0860    4.7894 H         1 <0>         0.0697
     33 H3          1.8939    2.8047    3.9415 H         1 <0>         0.0688
     34 H4          0.5005    2.2007    3.0131 H         1 <0>         0.1009
     35 H5          3.5136    1.2406    4.9162 H         1 <0>         0.1365
     36 H6          4.4989   -1.1380    4.6807 H         1 <0>         0.1874
     37 H7         -0.4334    1.7366    1.9431 H         1 <0>         0.0873
     38 H8         -1.9302    0.9153    2.4463 H         1 <0>         0.0788
     39 H9         -0.7076    1.3602    3.6610 H         1 <0>         0.1076
     40 H10        -0.3350   -2.8951    1.6272 H         1 <0>         0.0762
     41 H11         0.5020   -2.9103    3.1954 H         1 <0>         0.0768
     42 H12        -2.3760   -3.8075    2.7271 H         1 <0>         0.0682
     43 H13        -0.9779   -4.8923    2.9178 H         1 <0>         0.0728
     44 H14        -2.2961   -4.5517    5.0531 H         1 <0>         0.0782
     45 H15        -0.5851   -4.0688    5.1887 H         1 <0>         0.0794
     46 H16        -3.5978   -3.0564    6.1892 H         1 <0>         0.1319
     47 H17        -3.2593    2.3668    5.9787 H         1 <0>         0.2085
     48 H18        -1.8719    0.6211    3.8972 H         1 <0>         0.1370
     49 H19        -0.8481    0.6956    5.3264 H         1 <0>         0.0864
     50 H20         0.8729   -0.5584    4.8038 H         1 <0>         0.1040
     51 H21         0.2346   -1.4527    6.2041 H         1 <0>         0.0520
     52 H22         0.7281   -2.3312    4.7368 H         1 <0>         0.0852
     53 H23        -5.5454   -2.7979    6.1717 H         1 <0>         0.1334
     54 H24        -7.1697   -4.1907    7.3843 H         1 <0>         0.1375
     55 H25        -7.3335   -1.2963   10.5196 H         1 <0>         0.1375
     56 H26        -5.7017    0.1030    9.3245 H         1 <0>         0.1369
     57 H27         0.8153   -1.0950    0.8559 H         1 <0>         0.3810
@<TRIPOS>BOND
     1    1    2 1
     2    1   32 1
     3    1   33 1
     4    1   34 1
     5    2    6 2
     6    2    3 1
     7    3    4 2
     8    3   35 1
     9    4    5 1
    10    4   36 1
    11    5    6 1
    12    6    7 1
    13    7    8 1
    14    7    9 1
    15    7   31 1
    16    8   37 1
    17    8   38 1
    18    8   39 1
    19    9   10 1
    20    9   22 1
    21    9   11 1
    22   11   12 1
    23   11   40 1
    24   11   41 1
    25   12   13 1
    26   12   42 1
    27   12   43 1
    28   13   14 1
    29   13   44 1
    30   13   45 1
    31   14   22 1
    32   14   15 2
    33   15   16 1
    34   15   46 1
    35   16   20 1
    36   16   17 2
    37   17   18 1
    38   17   24 1
    39   18   19 2
    40   19   20 1
    41   19   47 1
    42   20   21 1
    43   21   22 1
    44   21   48 1
    45   21   49 1
    46   22   23 1
    47   23   50 1
    48   23   51 1
    49   23   52 1
    50   24   29 ar
    51   24   25 ar
    52   25   26 ar
    53   25   53 1
    54   26   27 ar
    55   26   54 1
    56   27   28 ar
    57   27   30 1
    58   28   29 ar
    59   28   55 1
    60   29   56 1
    61   31   57 1
@<TRIPOS>MOLECULE
CHEMBL271835
   48    51     0     0     0
SMALL
USER_CHARGES

@<TRIPOS>ATOM
      1 C1         -0.0472    1.6447   -0.0571 C.3       1 <0>        -0.1285
      2 C2          0.1128    0.1976   -0.5273 C.3       1 <0>        -0.0521
      3 C3         -1.2025   -0.5406   -0.4266 C.ar      1 <0>        -0.1004
      4 C4         -2.4267   -0.3486   -1.0205 C.ar      1 <0>        -0.0756
      5 C5         -3.4852   -1.2130   -0.7273 C.ar      1 <0>        -0.0152
      6 C6         -3.2864   -2.2661    0.1690 C.ar      1 <0>        -0.0925
      7 C7         -2.0555   -2.4501    0.7596 C.ar      1 <0>         0.0885
      8 C8         -0.9967   -1.5861    0.4663 C.ar      1 <0>         0.1261
      9 N1          0.3188   -1.5703    0.9311 N.am      1 <0>        -0.5393
     10 C9          1.0338   -0.5634    0.4024 C.2       1 <0>         0.5363
     11 O1          2.1988   -0.3115    0.6274 O.2       1 <0>        -0.4828
     12 C10         0.8585   -2.5409    1.8866 C.3       1 <0>         0.1440
     13 C11         1.4338   -3.7158    1.1383 C.ar      1 <0>        -0.1189
     14 C12         0.6330   -4.8006    0.8338 C.ar      1 <0>        -0.1049
     15 C13         1.1607   -5.8782    0.1474 C.ar      1 <0>        -0.1226
     16 C14         2.4892   -5.8709   -0.2347 C.ar      1 <0>        -0.1098
     17 C15         3.2898   -4.7857    0.0691 C.ar      1 <0>        -0.1228
     18 C16         2.7610   -3.7062    0.7516 C.ar      1 <0>        -0.0963
     19 F1         -1.8708   -3.4704    1.6257 F         1 <0>        -0.1296
     20 C17        -4.8048   -1.0142   -1.3604 C.2       1 <0>         0.0927
     21 C18        -5.7845   -1.9731   -1.5016 C.2       1 <0>        -0.1725
     22 C19        -6.8672   -1.3793   -2.1490 C.2       1 <0>        -0.1071
     23 C20        -6.5322   -0.0625   -2.3945 C.2       1 <0>         0.0603
     24 N2         -5.2652    0.1533   -1.9007 N.pl3     1 <0>        -0.4141
     25 C21        -4.5323    1.4209   -1.9496 C.3       1 <0>         0.0539
     26 C22        -7.3593    0.9095   -3.0438 C.1       1 <0>         0.2756
     27 N3         -8.0155    1.6806   -3.5589 N.1       1 <0>        -0.4011
     28 C23         0.6454    0.1570   -1.9610 C.3       1 <0>        -0.1278
     29 H1          0.9233    2.1407   -0.0709 H         1 <0>         0.0759
     30 H2         -0.7328    2.1693   -0.7226 H         1 <0>         0.0745
     31 H3         -0.4462    1.6552    0.9572 H         1 <0>         0.0633
     32 H4         -2.5708    0.4686   -1.7118 H         1 <0>         0.1396
     33 H5         -4.1001   -2.9376    0.3998 H         1 <0>         0.1547
     34 H6          1.6417   -2.0694    2.4802 H         1 <0>         0.1017
     35 H7          0.0608   -2.8848    2.5450 H         1 <0>         0.1014
     36 H8         -0.4049   -4.8063    1.1323 H         1 <0>         0.1301
     37 H9          0.5352   -6.7260   -0.0899 H         1 <0>         0.1245
     38 H10         2.9017   -6.7131   -0.7703 H         1 <0>         0.1237
     39 H11         4.3278   -4.7801   -0.2292 H         1 <0>         0.1242
     40 H12         3.3855   -2.8567    0.9857 H         1 <0>         0.1252
     41 H13        -5.7244   -2.9993   -1.1706 H         1 <0>         0.1544
     42 H14        -7.7976   -1.8613   -2.4108 H         1 <0>         0.1555
     43 H15        -3.8743    1.4268   -2.8186 H         1 <0>         0.0868
     44 H16        -5.2397    2.2469   -2.0239 H         1 <0>         0.0897
     45 H17        -3.9378    1.5321   -1.0429 H         1 <0>         0.0984
     46 H18         1.6096    0.6634   -2.0049 H         1 <0>         0.0754
     47 H19         0.7650   -0.8799   -2.2750 H         1 <0>         0.0629
     48 H20        -0.0590    0.6586   -2.6246 H         1 <0>         0.0747
@<TRIPOS>BOND
     1    1    2 1
     2    1   29 1
     3    1   30 1
     4    1   31 1
     5    2   10 1
     6    2    3 1
     7    2   28 1
     8    3    8 ar
     9    3    4 ar
    10    4    5 ar
    11    4   32 1
    12    5    6 ar
    13    5   20 1
    14    6    7 ar
    15    6   33 1
    16    7    8 ar
    17    7   19 1
    18    8    9 1
    19    9   10 am
    20    9   12 1
    21   10   11 2
    22   12   13 1
    23   12   34 1
    24   12   35 1
    25   13   18 ar
    26   13   14 ar
    27   14   15 ar
    28   14   36 1
    29   15   16 ar
    30   15   37 1
    31   16   17 ar
    32   16   38 1
    33   17   18 ar
    34   17   39 1
    35   18   40 1
    36   20   24 1
    37   20   21 2
    38   21   22 1
    39   21   41 1
    40   22   23 2
    41   22   42 1
    42   23   24 1
    43   23   26 1
    44   24   25 1
    45   25   43 1
    46   25   44 1
    47   25   45 1
    48   26   27 3
    49   28   46 1
    50   28   47 1
    51   28   48 1
@<TRIPOS>MOLECULE
CHEMBL286822
   52    56     0     0     0
SMALL
USER_CHARGES

@<TRIPOS>ATOM
      1 C1          0.3332    1.3124    0.0499 C.3       1 <0>        -0.1834
      2 C2          0.4014   -0.2101    0.1852 C.3       1 <0>        -0.0466
      3 H1         -0.6094   -0.6177    0.1740 H         1 <0>         0.0821
      4 C3          1.1905   -0.7860   -0.9902 C.3       1 <0>        -0.1188
      5 C4          1.4342   -2.2797   -0.7376 C.3       1 <0>         0.1729
      6 N1          2.2675   -2.4011    0.4661 N.pl3     1 <0>        -0.7383
      7 C5          1.9564   -1.6238    1.5871 C.ar      1 <0>         0.2280
      8 C6          1.0654   -0.5637    1.4899 C.ar      1 <0>        -0.1241
      9 C7          0.7830    0.1916    2.6099 C.ar      1 <0>        -0.0700
     10 C8          1.3773   -0.1229    3.8339 C.ar      1 <0>        -0.0877
     11 C9          2.2762   -1.1777    3.9260 C.ar      1 <0>        -0.0601
     12 C10         2.5624   -1.9249    2.8035 C.ar      1 <0>        -0.1838
     13 C11         0.9954    0.6794    5.0196 C.ar      1 <0>        -0.0961
     14 C12         1.7078    0.6033    6.2087 C.ar      1 <0>        -0.0842
     15 C13         1.3274    1.3835    7.2841 C.ar      1 <0>        -0.1420
     16 C14         0.2439    2.2374    7.1759 C.ar      1 <0>        -0.0915
     17 C15        -0.4750    2.3135    5.9972 C.ar      1 <0>        -0.1385
     18 C16        -0.1120    1.5306    4.9149 C.ar      1 <0>         0.1243
     19 O1         -0.8343    1.5535    3.7666 O.3       1 <0>        -0.3021
     20 C17        -0.1536    1.3684    2.5269 C.3       1 <0>         0.1674
     21 H2         -0.8847    1.1914    1.7381 H         1 <0>         0.1480
     22 C18         0.6358    2.6105    2.2028 C.ar      1 <0>        -0.0960
     23 C19        -0.0164    3.7511    1.7730 C.ar      1 <0>        -0.0915
     24 C20         0.7071    4.8906    1.4755 C.ar      1 <0>        -0.1083
     25 C21         2.0842    4.8895    1.6079 C.ar      1 <0>        -0.0300
     26 C22         2.7364    3.7477    2.0381 C.ar      1 <0>        -0.1097
     27 C23         2.0113    2.6106    2.3407 C.ar      1 <0>        -0.0919
     28 Cl1         2.9937    6.3202    1.2339 Cl        1 <0>        -0.0685
     29 C24         0.0985   -2.9926   -0.5173 C.3       1 <0>        -0.1623
     30 C25         2.1605   -2.8960   -1.9349 C.3       1 <0>        -0.1539
     31 H3          1.1739    1.7622    0.5782 H         1 <0>         0.0847
     32 H4          0.3783    1.5859   -1.0043 H         1 <0>         0.0605
     33 H5         -0.6011    1.6739    0.4794 H         1 <0>         0.0692
     34 H6          0.6200   -0.6594   -1.9103 H         1 <0>         0.0785
     35 H7          2.1464   -0.2694   -1.0767 H         1 <0>         0.0717
     36 H8          3.0215   -3.0110    0.4835 H         1 <0>         0.4013
     37 H9          2.7466   -1.4109    4.8697 H         1 <0>         0.1278
     38 H10         3.2604   -2.7464    2.8682 H         1 <0>         0.1248
     39 H11         2.5543   -0.0621    6.2931 H         1 <0>         0.1264
     40 H12         1.8773    1.3264    8.2119 H         1 <0>         0.1256
     41 H13        -0.0427    2.8488    8.0188 H         1 <0>         0.1285
     42 H14        -1.3187    2.9834    5.9210 H         1 <0>         0.1307
     43 H15        -1.0914    3.7517    1.6693 H         1 <0>         0.1360
     44 H16         0.1975    5.7815    1.1394 H         1 <0>         0.1361
     45 H17         3.8114    3.7462    2.1414 H         1 <0>         0.1334
     46 H18         2.5198    1.7207    2.6811 H         1 <0>         0.1354
     47 H19        -0.5269   -2.8741   -1.4021 H         1 <0>         0.0659
     48 H20         0.2778   -4.0528   -0.3384 H         1 <0>         0.0585
     49 H21        -0.4068   -2.5589    0.3456 H         1 <0>         0.0623
     50 H22         3.1173   -2.3937   -2.0774 H         1 <0>         0.0630
     51 H23         2.3308   -3.9566   -1.7499 H         1 <0>         0.0625
     52 H24         1.5506   -2.7767   -2.8305 H         1 <0>         0.0738
@<TRIPOS>BOND
     1    1    2 1
     2    1   31 1
     3    1   32 1
     4    1   33 1
     5    2    3 1
     6    2    8 1
     7    2    4 1
     8    4    5 1
     9    4   34 1
    10    4   35 1
    11    5    6 1
    12    5   29 1
    13    5   30 1
    14    6    7 1
    15    6   36 1
    16    7   12 ar
    17    7    8 ar
    18    8    9 ar
    19    9   20 1
    20    9   10 ar
    21   10   11 ar
    22   10   13 1
    23   11   12 ar
    24   11   37 1
    25   12   38 1
    26   13   18 ar
    27   13   14 ar
    28   14   15 ar
    29   14   39 1
    30   15   16 ar
    31   15   40 1
    32   16   17 ar
    33   16   41 1
    34   17   18 ar
    35   17   42 1
    36   18   19 1
    37   19   20 1
    38   20   21 1
    39   20   22 1
    40   22   27 ar
    41   22   23 ar
    42   23   24 ar
    43   23   43 1
    44   24   25 ar
    45   24   44 1
    46   25   26 ar
    47   25   28 1
    48   26   27 ar
    49   26   45 1
    50   27   46 1
    51   29   47 1
    52   29   48 1
    53   29   49 1
    54   30   50 1
    55   30   51 1
    56   30   52 1
@<TRIPOS>MOLECULE
CHEMBL407847
   39    42     0     0     0
SMALL
USER_CHARGES

@<TRIPOS>ATOM
      1 C1          1.1755   -3.0283    1.4600 C.3       1 <0>         0.0537
      2 N1          0.5316   -1.9950    0.6451 N.pl3     1 <0>        -0.4139
      3 C2          0.4143   -2.0100   -0.7266 C.2       1 <0>         0.0613
      4 C3         -0.2533   -0.8638   -1.1104 C.2       1 <0>        -0.1073
      5 C4         -0.5455   -0.1425    0.0464 C.2       1 <0>        -0.1713
      6 C5         -0.0587   -0.8575    1.1192 C.2       1 <0>         0.0909
      7 C6         -0.1557   -0.4607    2.5386 C.ar      1 <0>        -0.0114
      8 C7         -0.0373   -1.4210    3.5473 C.ar      1 <0>        -0.0789
      9 C8         -0.1285   -1.0452    4.8657 C.ar      1 <0>        -0.0939
     10 C9         -0.3376    0.2866    5.2155 C.ar      1 <0>         0.1174
     11 C10        -0.4565    1.2452    4.2067 C.ar      1 <0>         0.0912
     12 C11        -0.3607    0.8775    2.8822 C.ar      1 <0>        -0.0944
     13 F1         -0.6605    2.5407    4.5314 F         1 <0>        -0.1314
     14 N2         -0.3909    0.4172    6.6047 N.am      1 <0>        -0.6571
     15 C12        -0.2292   -0.7622    7.2331 C.2       1 <0>         0.5411
     16 O1         -0.2290   -0.9490    8.4316 O.2       1 <0>        -0.4819
     17 C13        -0.0487   -1.8051    6.1617 C.3       1 <0>        -0.0563
     18 C14         1.3055   -2.5136    6.3051 C.3       1 <0>        -0.0960
     19 C15         0.9625   -3.8330    7.0441 C.3       1 <0>        -0.1260
     20 C16        -0.4056   -4.2255    6.4316 C.3       1 <0>        -0.1220
     21 C17        -1.1380   -2.8784    6.2446 C.3       1 <0>        -0.1002
     22 C18         0.8996   -3.0344   -1.6017 C.1       1 <0>         0.2754
     23 N3          1.2845   -3.8470   -2.2960 N.1       1 <0>        -0.4006
     24 H1          0.4215   -3.7261    1.8242 H         1 <0>         0.0873
     25 H2          1.9057   -3.5656    0.8549 H         1 <0>         0.0899
     26 H3          1.6783   -2.5619    2.3072 H         1 <0>         0.0982
     27 H4         -0.5030   -0.5782   -2.1215 H         1 <0>         0.1558
     28 H5         -1.0631    0.8043    0.0935 H         1 <0>         0.1549
     29 H6          0.1253   -2.4573    3.2907 H         1 <0>         0.1407
     30 H7         -0.4487    1.6252    2.1078 H         1 <0>         0.1556
     31 H8         -0.5281    1.2605    7.0639 H         1 <0>         0.4185
     32 H9          1.7320   -2.7246    5.3245 H         1 <0>         0.0825
     33 H10         1.9914   -1.9100    6.8994 H         1 <0>         0.0740
     34 H11         1.7116   -4.5973    6.8370 H         1 <0>         0.0756
     35 H12         0.8704   -3.6619    8.1166 H         1 <0>         0.0768
     36 H13        -0.2655   -4.7201    5.4704 H         1 <0>         0.0705
     37 H14        -0.9592   -4.8689    7.1155 H         1 <0>         0.0745
     38 H15        -1.7899   -2.6852    7.0965 H         1 <0>         0.0767
     39 H16        -1.7198   -2.8933    5.3230 H         1 <0>         0.0803
@<TRIPOS>BOND
     1    1    2 1
     2    1   24 1
     3    1   25 1
     4    1   26 1
     5    2    6 1
     6    2    3 1
     7    3    4 2
     8    3   22 1
     9    4    5 1
    10    4   27 1
    11    5    6 2
    12    5   28 1
    13    6    7 1
    14    7   12 ar
    15    7    8 ar
    16    8    9 ar
    17    8   29 1
    18    9   17 1
    19    9   10 ar
    20   10   11 ar
    21   10   14 1
    22   11   12 ar
    23   11   13 1
    24   12   30 1
    25   14   15 am
    26   14   31 1
    27   15   16 2
    28   15   17 1
    29   17   21 1
    30   17   18 1
    31   18   19 1
    32   18   32 1
    33   18   33 1
    34   19   20 1
    35   19   34 1
    36   19   35 1
    37   20   21 1
    38   20   36 1
    39   20   37 1
    40   21   38 1
    41   21   39 1
    42   22   23 3
@<TRIPOS>MOLECULE
CHEMBL555672
   43    44     0     0     0
SMALL
USER_CHARGES

@<TRIPOS>ATOM
      1 C1          0.4792    1.0099   -0.8497 C.3       1 <0>        -0.1571
      2 C2          0.3057   -0.4440   -0.4059 C.3       1 <0>        -0.1233
      3 C3         -1.1796   -0.8105   -0.4291 C.3       1 <0>        -0.1513
      4 C4         -1.3531   -2.2644    0.0147 C.3       1 <0>         0.1139
      5 N1         -2.7806   -2.5711    0.1352 N.pl3     1 <0>        -0.6170
      6 C5         -3.5132   -2.9291   -0.9929 C.ar      1 <0>         0.2414
      7 C6         -4.8410   -3.3266   -0.8611 C.ar      1 <0>        -0.1926
      8 C7         -5.5690   -3.6813   -1.9737 C.ar      1 <0>        -0.0086
      9 C8         -4.9740   -3.6424   -3.2386 C.ar      1 <0>        -0.0584
     10 C9         -3.6394   -3.2425   -3.3680 C.ar      1 <0>         0.0523
     11 C10        -2.9185   -2.8833   -2.2495 C.ar      1 <0>        -0.1790
     12 Cl1        -2.8948   -3.1926   -4.9354 Cl        1 <0>        -0.0347
     13 C11        -5.7285   -4.0113   -4.3984 C.1       1 <0>         0.2396
     14 N2         -6.3270   -4.3039   -5.3186 N.1       1 <0>        -0.3883
     15 C12        -3.4369   -2.5011    1.4430 C.3       1 <0>         0.1342
     16 H1         -4.5152   -2.6150    1.3311 H         1 <0>         0.1351
     17 C13        -3.1083   -1.1594    2.1372 C.3       1 <0>        -0.1698
     18 C14        -2.9210   -1.5726    3.6187 C.3       1 <0>        -0.0040
     19 N3         -2.2427   -2.8903    3.5209 N.4       1 <0>        -0.3959
     20 C15        -2.8790   -3.5885    2.3799 C.3       1 <0>        -0.0298
     21 C16        -2.4437   -3.6566    4.7580 C.3       1 <0>        -0.0435
     22 H2          1.5374    1.2710   -0.8332 H         1 <0>         0.0603
     23 H3          0.0912    1.1298   -1.8612 H         1 <0>         0.0589
     24 H4         -0.0672    1.6647   -0.1709 H         1 <0>         0.0540
     25 H5          0.8521   -1.0988   -1.0847 H         1 <0>         0.0681
     26 H6          0.6938   -0.5639    0.6056 H         1 <0>         0.0595
     27 H7         -1.7260   -0.1557    0.2497 H         1 <0>         0.0716
     28 H8         -1.5676   -0.6906   -1.4406 H         1 <0>         0.0785
     29 H9         -0.9004   -2.9262   -0.7237 H         1 <0>         0.0904
     30 H10        -0.8674   -2.4102    0.9795 H         1 <0>         0.0691
     31 H11        -5.3003   -3.3569    0.1159 H         1 <0>         0.1374
     32 H12        -6.5988   -3.9898   -1.8700 H         1 <0>         0.1475
     33 H13        -1.8896   -2.5702   -2.3484 H         1 <0>         0.1469
     34 H14        -2.1888   -0.7329    1.7365 H         1 <0>         0.1128
     35 H15        -3.9368   -0.4587    2.0340 H         1 <0>         0.1247
     36 H16        -2.2909   -0.8534    4.1419 H         1 <0>         0.1393
     37 H17        -3.8862   -1.6726    4.1151 H         1 <0>         0.1385
     38 H18        -3.6902   -4.2231    2.7368 H         1 <0>         0.1423
     39 H19        -2.1387   -4.1895    1.8519 H         1 <0>         0.1378
     40 H20        -3.5111   -3.7933    4.9313 H         1 <0>         0.1236
     41 H21        -1.9631   -4.6304    4.6643 H         1 <0>         0.1235
     42 H22        -2.0060   -3.1145    5.5963 H         1 <0>         0.1248
     43 H23        -1.2573   -2.7622    3.3456 H         1 <0>         0.4273
@<TRIPOS>BOND
     1    1    2 1
     2    1   22 1
     3    1   23 1
     4    1   24 1
     5    2    3 1
     6    2   25 1
     7    2   26 1
     8    3    4 1
     9    3   27 1
    10    3   28 1
    11    4    5 1
    12    4   29 1
    13    4   30 1
    14    5    6 1
    15    5   15 1
    16    6   11 ar
    17    6    7 ar
    18    7    8 ar
    19    7   31 1
    20    8    9 ar
    21    8   32 1
    22    9   10 ar
    23    9   13 1
    24   10   11 ar
    25   10   12 1
    26   11   33 1
    27   13   14 3
    28   15   16 1
    29   15   20 1
    30   15   17 1
    31   17   18 1
    32   17   34 1
    33   17   35 1
    34   18   19 1
    35   18   36 1
    36   18   37 1
    37   19   20 1
    38   19   21 1
    39   19   43 1
    40   20   38 1
    41   20   39 1
    42   21   40 1
    43   21   41 1
    44   21   42 1
@<TRIPOS>MOLECULE
CHEMBL555672__1
   42    43     0     0     0
SMALL
USER_CHARGES

@<TRIPOS>ATOM
      1 C1          0.1456    1.5045    0.1320 C.3       1 <0>        -0.1533
      2 C2          0.1374   -0.0250    0.0955 C.3       1 <0>        -0.1230
      3 C3          0.7992   -0.5079   -1.1967 C.3       1 <0>        -0.1412
      4 C4          0.7910   -2.0374   -1.2332 C.3       1 <0>         0.1162
      5 N1          1.4247   -2.4998   -2.4705 N.pl3     1 <0>        -0.6085
      6 C5          2.7956   -2.7384   -2.5033 C.ar      1 <0>         0.2518
      7 C6          3.3778   -3.2872   -3.6427 C.ar      1 <0>        -0.2027
      8 C7          4.7327   -3.5248   -3.6795 C.ar      1 <0>        -0.0133
      9 C8          5.5259   -3.2145   -2.5704 C.ar      1 <0>        -0.0854
     10 C9          4.9381   -2.6630   -1.4267 C.ar      1 <0>         0.0511
     11 C10         3.5812   -2.4227   -1.3997 C.ar      1 <0>        -0.1936
     12 Cl1         5.9173   -2.2760   -0.0464 Cl        1 <0>        -0.0554
     13 C11         6.9362   -3.4608   -2.6051 C.1       1 <0>         0.2566
     14 N2          8.0549   -3.6563   -2.6325 N.1       1 <0>        -0.4175
     15 C12         0.6155   -2.7110   -3.6734 C.3       1 <0>         0.1436
     16 H1         -0.4214   -2.4327   -3.4847 H         1 <0>         0.0993
     17 C13         0.7011   -4.1869   -4.1254 C.3       1 <0>        -0.1511
     18 C14         0.7600   -4.0734   -5.6695 C.3       1 <0>         0.0282
     19 N3          1.5944   -2.8646   -5.8899 N.3       1 <0>        -0.5187
     20 C15         1.1826   -1.8942   -4.8493 C.3       1 <0>         0.0162
     21 C16         1.3797   -2.3148   -7.2351 C.3       1 <0>         0.0137
     22 H2          1.1742    1.8633    0.0945 H         1 <0>         0.0549
     23 H3         -0.4056    1.8914   -0.7251 H         1 <0>         0.0532
     24 H4         -0.3258    1.8485    1.0526 H         1 <0>         0.0554
     25 H5          0.6887   -0.4119    0.9526 H         1 <0>         0.0640
     26 H6         -0.8911   -0.3838    0.1330 H         1 <0>         0.0624
     27 H7          0.2480   -0.1210   -2.0538 H         1 <0>         0.0649
     28 H8          1.8278   -0.1491   -1.2342 H         1 <0>         0.0689
     29 H9          1.3422   -2.4243   -0.3761 H         1 <0>         0.0811
     30 H10        -0.2376   -2.3962   -1.1957 H         1 <0>         0.0790
     31 H11         2.7649   -3.5272   -4.4990 H         1 <0>         0.1820
     32 H12         5.1829   -3.9509   -4.5639 H         1 <0>         0.1390
     33 H13         3.1268   -1.9930   -0.5192 H         1 <0>         0.1408
     34 H14         1.6053   -4.6569   -3.7385 H         1 <0>         0.0944
     35 H15        -0.1856   -4.7382   -3.8127 H         1 <0>         0.0799
     36 H16         1.2359   -4.9535   -6.1021 H         1 <0>         0.0905
     37 H17        -0.2385   -3.9323   -6.0832 H         1 <0>         0.0519
     38 H18         0.4148   -1.2284   -5.2434 H         1 <0>         0.0556
     39 H19         2.0450   -1.3158   -4.5179 H         1 <0>         0.0924
     40 H20         0.3315   -2.0398   -7.3522 H         1 <0>         0.0316
     41 H21         2.0044   -1.4319   -7.3708 H         1 <0>         0.0719
     42 H22         1.6440   -3.0648   -7.9806 H         1 <0>         0.0732
@<TRIPOS>BOND
     1    1    2 1
     2    1   22 1
     3    1   23 1
     4    1   24 1
     5    2    3 1
     6    2   25 1
     7    2   26 1
     8    3    4 1
     9    3   27 1
    10    3   28 1
    11    4    5 1
    12    4   29 1
    13    4   30 1
    14    5    6 1
    15    5   15 1
    16    6   11 ar
    17    6    7 ar
    18    7    8 ar
    19    7   31 1
    20    8    9 ar
    21    8   32 1
    22    9   10 ar
    23    9   13 1
    24   10   11 ar
    25   10   12 1
    26   11   33 1
    27   13   14 3
    28   15   16 1
    29   15   20 1
    30   15   17 1
    31   17   18 1
    32   17   34 1
    33   17   35 1
    34   18   19 1
    35   18   36 1
    36   18   37 1
    37   19   20 1
    38   19   21 1
    39   20   38 1
    40   20   39 1
    41   21   40 1
    42   21   41 1
    43   21   42 1
@<TRIPOS>MOLECULE
CHEMBL138059
   32    34     0     0     0
SMALL
USER_CHARGES

@<TRIPOS>ATOM
      1 C1         -0.0187    1.5258    0.0104 C.3       1 <0>        -0.1724
      2 C2          0.0021   -0.0041    0.0020 C.3       1 <0>         0.1661
      3 C3          0.7212   -0.4928   -1.2301 C.ar      1 <0>        -0.1546
      4 C4          0.0405   -0.7165   -2.4051 C.ar      1 <0>        -0.0618
      5 C5          0.7312   -1.1664   -3.5297 C.ar      1 <0>        -0.0343
      6 C6          2.1054   -1.3876   -3.4606 C.ar      1 <0>        -0.0659
      7 C7          2.7830   -1.1621   -2.2797 C.ar      1 <0>        -0.1398
      8 C8          2.0933   -0.7159   -1.1625 C.ar      1 <0>         0.1647
      9 N1          2.7552   -0.4828    0.0496 N.am      1 <0>        -0.6688
     10 C9          2.0326   -0.3551    1.1817 C.2       1 <0>         0.6620
     11 O1          2.5976   -0.1244    2.2325 O.2       1 <0>        -0.5004
     12 O2          0.6935   -0.4804    1.1602 O.3       1 <0>        -0.3312
     13 C10         0.0029   -1.4093   -4.8006 C.2       1 <0>        -0.1408
     14 C11         0.5593   -1.8683   -6.0170 C.2       1 <0>        -0.1085
     15 C12        -0.4672   -1.9462   -6.9110 C.2       1 <0>         0.0454
     16 O3         -1.6002   -1.5586   -6.2909 O.3       1 <0>        -0.1483
     17 C13        -1.3305   -1.2386   -5.0179 C.2       1 <0>         0.0217
     18 C14        -0.3603   -2.3672   -8.2755 C.1       1 <0>         0.2840
     19 N2         -0.2755   -2.7012   -9.3580 N.1       1 <0>        -0.3692
     20 C15        -1.4324   -0.5362    0.0065 C.3       1 <0>        -0.1430
     21 H1          1.0039    1.9031    0.0027 H         1 <0>         0.0610
     22 H2         -0.5459    1.8868   -0.8726 H         1 <0>         0.0847
     23 H3         -0.5289    1.8773    0.9072 H         1 <0>         0.0797
     24 H4         -1.0245   -0.5447   -2.4558 H         1 <0>         0.1371
     25 H5          2.6405   -1.7353   -4.3318 H         1 <0>         0.1364
     26 H6          3.8479   -1.3335   -2.2256 H         1 <0>         0.1386
     27 H7          3.7224   -0.4143    0.0748 H         1 <0>         0.4310
     28 H8          1.5955   -2.1101   -6.2018 H         1 <0>         0.1671
     29 H9         -2.0499   -0.8994   -4.2872 H         1 <0>         0.2193
     30 H10        -1.9563   -0.1760   -0.8789 H         1 <0>         0.0866
     31 H11        -1.4157   -1.6260    0.0005 H         1 <0>         0.0745
     32 H12        -1.9472   -0.1856    0.9010 H         1 <0>         0.0791
@<TRIPOS>BOND
     1    1    2 1
     2    1   21 1
     3    1   22 1
     4    1   23 1
     5    2   12 1
     6    2    3 1
     7    2   20 1
     8    3    8 ar
     9    3    4 ar
    10    4    5 ar
    11    4   24 1
    12    5    6 ar
    13    5   13 1
    14    6    7 ar
    15    6   25 1
    16    7    8 ar
    17    7   26 1
    18    8    9 1
    19    9   10 am
    20    9   27 1
    21   10   11 2
    22   10   12 1
    23   13   17 2
    24   13   14 1
    25   14   15 2
    26   14   28 1
    27   15   16 1
    28   15   18 1
    29   16   17 1
    30   17   29 1
    31   18   19 3
    32   20   30 1
    33   20   31 1
    34   20   32 1
@<TRIPOS>MOLECULE
CHEMBL506297
   45    48     0     0     0
SMALL
USER_CHARGES

@<TRIPOS>ATOM
      1 C1         -0.1326    1.6379   -0.1976 C.3       1 <0>        -0.1582
      2 C2         -0.0161    0.1167   -0.0826 C.3       1 <0>        -0.1576
      3 C3         -1.4151   -0.4973   -0.0011 C.3       1 <0>         0.2248
      4 C4         -1.2707   -1.9738    0.2014 C.ar      1 <0>        -0.1359
      5 C5         -1.2862   -2.4109    1.5220 C.ar      1 <0>        -0.0615
      6 C6         -1.1632   -3.7572    1.8356 C.ar      1 <0>        -0.0772
      7 C7         -1.0222   -4.6858    0.8051 C.ar      1 <0>        -0.0622
      8 C8         -1.0056   -4.2543   -0.4963 C.ar      1 <0>        -0.1599
      9 C9         -1.1274   -2.8913   -0.8203 C.ar      1 <0>         0.1961
     10 N1         -1.0848   -2.6040   -2.1663 N.am      1 <0>        -0.6468
     11 C10        -1.3042   -1.5389   -2.8902 C.2       1 <0>         0.4967
     12 O1         -1.3822   -1.6997   -4.0898 O.2       1 <0>        -0.5269
     13 C11        -1.4675   -0.1458   -2.3873 C.3       1 <0>         0.0446
     14 O2         -2.1273   -0.1212   -1.1420 O.3       1 <0>        -0.3444
     15 C12        -1.1811   -4.2030    3.2506 C.ar      1 <0>        -0.0033
     16 C13        -0.9404   -5.5371    3.5634 C.ar      1 <0>        -0.0773
     17 C14        -0.9580   -5.9499    4.8950 C.ar      1 <0>         0.0134
     18 C15        -1.2171   -5.0226    5.9069 C.ar      1 <0>        -0.1105
     19 C16        -1.4555   -3.6986    5.5886 C.ar      1 <0>         0.1137
     20 C17        -1.4335   -3.2845    4.2685 C.ar      1 <0>        -0.1223
     21 F1         -1.7061   -2.8049    6.5703 F         1 <0>        -0.1270
     22 C18        -0.7116   -7.3216    5.2244 C.1       1 <0>         0.2482
     23 N2         -0.5161   -8.4097    5.4857 N.1       1 <0>        -0.3957
     24 C19        -2.1132    0.0772    1.2046 C.2       1 <0>        -0.0980
     25 C20        -3.4882    0.2176    1.2183 C.2       1 <0>        -0.1368
     26 C21        -4.0849    0.7380    2.3185 C.2       1 <0>        -0.1676
     27 S1         -2.6870    1.0486    3.3847 S.3       1 <0>         0.0520
     28 C22        -1.4026    0.4587    2.2940 C.2       1 <0>        -0.1814
     29 H1          0.8640    2.0753   -0.2557 H         1 <0>         0.0613
     30 H2         -0.6940    1.8924   -1.0966 H         1 <0>         0.0613
     31 H3         -0.6510    2.0298    0.6775 H         1 <0>         0.0683
     32 H4          0.5023   -0.2752   -0.9577 H         1 <0>         0.0703
     33 H5          0.5453   -0.1377    0.8164 H         1 <0>         0.0840
     34 H6         -1.3957   -1.6891    2.3179 H         1 <0>         0.1419
     35 H7         -0.9263   -5.7377    1.0304 H         1 <0>         0.1376
     36 H8         -0.8965   -4.9778   -1.2907 H         1 <0>         0.1350
     37 H9         -0.8326   -3.3721   -2.7024 H         1 <0>         0.4015
     38 H10        -0.4840    0.3114   -2.2787 H         1 <0>         0.1003
     39 H11        -2.0481    0.4280   -3.1096 H         1 <0>         0.1434
     40 H12        -0.7409   -6.2505    2.7775 H         1 <0>         0.1440
     41 H13        -1.2316   -5.3403    6.9390 H         1 <0>         0.1489
     42 H14        -1.6159   -2.2481    4.0258 H         1 <0>         0.1450
     43 H15        -4.0783   -0.0824    0.3650 H         1 <0>         0.1405
     44 H16        -5.1338    0.9182    2.5024 H         1 <0>         0.1879
     45 H17        -0.3361    0.4176    2.4590 H         1 <0>         0.1895
@<TRIPOS>BOND
     1    1    2 1
     2    1   29 1
     3    1   30 1
     4    1   31 1
     5    2    3 1
     6    2   32 1
     7    2   33 1
     8    3   14 1
     9    3    4 1
    10    3   24 1
    11    4    9 ar
    12    4    5 ar
    13    5    6 ar
    14    5   34 1
    15    6    7 ar
    16    6   15 1
    17    7    8 ar
    18    7   35 1
    19    8    9 ar
    20    8   36 1
    21    9   10 1
    22   10   11 am
    23   10   37 1
    24   11   12 2
    25   11   13 1
    26   13   14 1
    27   13   38 1
    28   13   39 1
    29   15   20 ar
    30   15   16 ar
    31   16   17 ar
    32   16   40 1
    33   17   18 ar
    34   17   22 1
    35   18   19 ar
    36   18   41 1
    37   19   20 ar
    38   19   21 1
    39   20   42 1
    40   22   23 3
    41   24   28 2
    42   24   25 1
    43   25   26 2
    44   25   43 1
    45   26   27 1
    46   26   44 1
    47   27   28 1
    48   28   45 1
@<TRIPOS>MOLECULE
CHEMBL506297__1
   45    48     0     0     0
SMALL
USER_CHARGES

@<TRIPOS>ATOM
      1 C1         -0.1593    1.8595    0.3983 C.3       1 <0>        -0.1583
      2 C2         -0.0550    0.3467    0.1941 C.3       1 <0>        -0.1577
      3 C3         -1.4587   -0.2609    0.1577 C.3       1 <0>         0.2247
      4 C4         -1.3343   -1.7146   -0.1790 C.ar      1 <0>        -0.1359
      5 C5         -1.4427   -2.0379   -1.5276 C.ar      1 <0>        -0.0619
      6 C6         -1.3469   -3.3525   -1.9622 C.ar      1 <0>        -0.0772
      7 C7         -1.1386   -4.3650   -1.0264 C.ar      1 <0>        -0.0622
      8 C8         -1.0305   -4.0456    0.3026 C.ar      1 <0>        -0.1599
      9 C9         -1.1243   -2.7153    0.7488 C.ar      1 <0>         0.1961
     10 N1         -0.9878   -2.5434    2.1082 N.am      1 <0>        -0.6468
     11 C10        -1.1526   -1.5440    2.9333 C.2       1 <0>         0.4967
     12 O1         -1.1479   -1.8063    4.1174 O.2       1 <0>        -0.5269
     13 C11        -1.3453   -0.1137    2.5630 C.3       1 <0>         0.0449
     14 O2         -2.0889    0.0154    1.3729 O.3       1 <0>        -0.3446
     15 C12        -1.4652   -3.6766   -3.4051 C.ar      1 <0>        -0.0031
     16 C13        -1.4853   -5.0040   -3.8213 C.ar      1 <0>        -0.0772
     17 C14        -1.5971   -5.3024   -5.1786 C.ar      1 <0>         0.0135
     18 C15        -1.6883   -4.2676   -6.1125 C.ar      1 <0>        -0.1105
     19 C16        -1.6677   -2.9510   -5.6918 C.ar      1 <0>         0.1137
     20 C17        -1.5621   -2.6516   -4.3449 C.ar      1 <0>        -0.1222
     21 F1         -1.7556   -1.9531   -6.5983 F         1 <0>        -0.1272
     22 C18        -1.6180   -6.6663   -5.6143 C.1       1 <0>         0.2482
     23 N2         -1.6345   -7.7483   -5.9599 N.1       1 <0>        -0.3957
     24 C19        -2.2362    0.4125   -0.9437 C.2       1 <0>        -0.0975
     25 C20        -3.6052    0.5725   -0.8392 C.2       1 <0>        -0.1368
     26 C21        -4.2745    1.1825   -1.8478 C.2       1 <0>        -0.1675
     27 S1         -2.9571    1.5533   -2.9942 S.3       1 <0>         0.0526
     28 C22        -1.6028    0.8752   -2.0491 C.2       1 <0>        -0.1822
     29 H1          0.8407    2.2924    0.4242 H         1 <0>         0.0610
     30 H2         -0.7243    2.2989   -0.4238 H         1 <0>         0.0688
     31 H3         -0.6686    2.0647    1.3398 H         1 <0>         0.0610
     32 H4          0.4543    0.1415   -0.7475 H         1 <0>         0.0837
     33 H5          0.5099   -0.0928    1.0161 H         1 <0>         0.0708
     34 H6         -1.6049   -1.2515   -2.2499 H         1 <0>         0.1422
     35 H7         -1.0633   -5.3938   -1.3462 H         1 <0>         0.1376
     36 H8         -0.8695   -4.8338    1.0233 H         1 <0>         0.1350
     37 H9         -0.7030   -3.3539    2.5585 H         1 <0>         0.4016
     38 H10        -1.8727    0.3953    3.3697 H         1 <0>         0.1435
     39 H11        -0.3700    0.3534    2.4260 H         1 <0>         0.1001
     40 H12        -1.4142   -5.8006   -3.0955 H         1 <0>         0.1440
     41 H13        -1.7746   -4.4965   -7.1645 H         1 <0>         0.1489
     42 H14        -1.5510   -1.6212   -4.0214 H         1 <0>         0.1448
     43 H15        -4.1336    0.2166    0.0328 H         1 <0>         0.1406
     44 H16        -5.3308    1.3901   -1.9353 H         1 <0>         0.1878
     45 H17        -0.5516    0.8415   -2.2949 H         1 <0>         0.1894
@<TRIPOS>BOND
     1    1    2 1
     2    1   29 1
     3    1   30 1
     4    1   31 1
     5    2    3 1
     6    2   32 1
     7    2   33 1
     8    3   14 1
     9    3    4 1
    10    3   24 1
    11    4    9 ar
    12    4    5 ar
    13    5    6 ar
    14    5   34 1
    15    6    7 ar
    16    6   15 1
    17    7    8 ar
    18    7   35 1
    19    8    9 ar
    20    8   36 1
    21    9   10 1
    22   10   11 am
    23   10   37 1
    24   11   12 2
    25   11   13 1
    26   13   14 1
    27   13   38 1
    28   13   39 1
    29   15   20 ar
    30   15   16 ar
    31   16   17 ar
    32   16   40 1
    33   17   18 ar
    34   17   22 1
    35   18   19 ar
    36   18   41 1
    37   19   20 ar
    38   19   21 1
    39   20   42 1
    40   22   23 3
    41   24   28 2
    42   24   25 1
    43   25   26 2
    44   25   43 1
    45   26   27 1
    46   26   44 1
    47   27   28 1
    48   28   45 1
@<TRIPOS>MOLECULE
CHEMBL487116
   46    50     0     0     0
SMALL
USER_CHARGES

@<TRIPOS>ATOM
      1 C1         -0.0163    1.0918   -0.5724 C.2       1 <0>        -0.2111
      2 C2          1.3272    1.2295   -0.9909 C.2       1 <0>        -0.1574
      3 C3          2.0938    0.7013   -0.0200 C.2       1 <0>        -0.0263
      4 O1          1.2905    0.2536    0.9588 O.3       1 <0>        -0.1666
      5 C4          0.0098    0.4877    0.6291 C.2       1 <0>        -0.0303
      6 C5          3.5989    0.6249   -0.0289 C.3       1 <0>         0.3560
      7 C6          3.9987   -0.7395   -0.4984 C.ar      1 <0>        -0.1450
      8 C7          3.0518   -1.7439   -0.3253 C.ar      1 <0>        -0.0475
      9 C8          3.3061   -3.0487   -0.7238 C.ar      1 <0>        -0.0766
     10 C9          4.5344   -3.3544   -1.3087 C.ar      1 <0>        -0.0519
     11 C10         5.4678   -2.3644   -1.4779 C.ar      1 <0>        -0.1600
     12 C11         5.2169   -1.0410   -1.0739 C.ar      1 <0>         0.2125
     13 N1          6.2478   -0.1558   -1.2974 N.am      1 <0>        -0.6464
     14 C12         6.3832    1.1414   -1.2225 C.2       1 <0>         0.5001
     15 O2          7.3908    1.6146   -1.7040 O.2       1 <0>        -0.5194
     16 C13         5.4215    2.0969   -0.6042 C.3       1 <0>         0.0522
     17 O3          4.0881    1.6841   -0.7964 O.3       1 <0>        -0.3389
     18 C14         2.2835   -4.1058   -0.5294 C.ar      1 <0>        -0.0046
     19 C15         2.5485   -5.4126   -0.9264 C.ar      1 <0>        -0.0758
     20 C16         1.5837   -6.4017   -0.7407 C.ar      1 <0>         0.0137
     21 C17         0.3571   -6.0755   -0.1574 C.ar      1 <0>        -0.1089
     22 C18         0.1006   -4.7750    0.2347 C.ar      1 <0>         0.1136
     23 C19         1.0581   -3.7919    0.0566 C.ar      1 <0>        -0.1209
     24 F1         -1.0872   -4.4635    0.7981 F         1 <0>        -0.1276
     25 C20         1.8494   -7.7488   -1.1473 C.1       1 <0>         0.2480
     26 N2          2.0602   -8.8175   -1.4699 N.1       1 <0>        -0.3949
     27 C21         4.0887    0.7983    1.3856 C.2       1 <0>        -0.0744
     28 C22         4.4107   -0.1947    2.2339 C.2       1 <0>        -0.1636
     29 C23         4.8175    0.4151    3.4429 C.2       1 <0>        -0.2137
     30 C24         4.7198    1.7443    3.2611 C.2       1 <0>        -0.0255
     31 O4          4.2834    1.9707    2.0112 O.3       1 <0>        -0.1646
     32 H1         -0.8946    1.4141   -1.1119 H         1 <0>         0.1545
     33 H2          1.6717    1.6731   -1.9133 H         1 <0>         0.1554
     34 H3         -0.8529    0.2343    1.2275 H         1 <0>         0.2094
     35 H4          2.1014   -1.5038    0.1280 H         1 <0>         0.1413
     36 H5          4.7493   -4.3642   -1.6258 H         1 <0>         0.1420
     37 H6          6.4174   -2.6065   -1.9317 H         1 <0>         0.1403
     38 H7          7.0646   -0.5992   -1.5752 H         1 <0>         0.4045
     39 H8          5.6228    2.1633    0.4649 H         1 <0>         0.1030
     40 H9          5.5583    3.0807   -1.0532 H         1 <0>         0.1526
     41 H10         3.4982   -5.6599   -1.3772 H         1 <0>         0.1450
     42 H11        -0.3918   -6.8402   -0.0129 H         1 <0>         0.1494
     43 H12         0.8541   -2.7784    0.3688 H         1 <0>         0.1451
     44 H13         4.3664   -1.2545    2.0307 H         1 <0>         0.1506
     45 H14         5.1441   -0.0895    4.3402 H         1 <0>         0.1540
     46 H15         4.9565    2.5011    3.9942 H         1 <0>         0.2088
@<TRIPOS>BOND
     1    1    5 2
     2    1    2 1
     3    1   32 1
     4    2    3 2
     5    2   33 1
     6    3    4 1
     7    3    6 1
     8    4    5 1
     9    5   34 1
    10    6   17 1
    11    6    7 1
    12    6   27 1
    13    7   12 ar
    14    7    8 ar
    15    8    9 ar
    16    8   35 1
    17    9   10 ar
    18    9   18 1
    19   10   11 ar
    20   10   36 1
    21   11   12 ar
    22   11   37 1
    23   12   13 1
    24   13   14 am
    25   13   38 1
    26   14   15 2
    27   14   16 1
    28   16   17 1
    29   16   39 1
    30   16   40 1
    31   18   23 ar
    32   18   19 ar
    33   19   20 ar
    34   19   41 1
    35   20   21 ar
    36   20   25 1
    37   21   22 ar
    38   21   42 1
    39   22   23 ar
    40   22   24 1
    41   23   43 1
    42   25   26 3
    43   27   31 1
    44   27   28 2
    45   28   29 1
    46   28   44 1
    47   29   30 2
    48   29   45 1
    49   30   31 1
    50   30   46 1
@<TRIPOS>MOLECULE
CHEMBL479581
   42    44     0     0     0
SMALL
USER_CHARGES

@<TRIPOS>ATOM
      1 C1          0.3381    0.5687    0.2893 C.3       1 <0>        -0.1605
      2 C2         -0.0304    0.5124   -1.1946 C.3       1 <0>        -0.1100
      3 C3          0.8506   -0.5206   -1.8999 C.3       1 <0>        -0.0473
      4 C4          0.5342   -1.8768   -1.3148 C.ar      1 <0>        -0.0217
      5 C5         -0.7383   -2.3938   -1.3460 C.ar      1 <0>        -0.1167
      6 C6         -0.9870   -3.6423   -0.7984 C.ar      1 <0>        -0.0734
      7 C7          0.0403   -4.3679   -0.2211 C.ar      1 <0>        -0.1295
      8 C8          1.3218   -3.8571   -0.1845 C.ar      1 <0>        -0.0413
      9 C9          1.5802   -2.6013   -0.7345 C.ar      1 <0>        -0.1471
     10 C10         2.9376   -2.0280   -0.7130 C.2       1 <0>         0.5683
     11 O1          3.8374   -2.6682   -0.2062 O.2       1 <0>        -0.4793
     12 N1          3.2130   -0.8243   -1.2342 N.am      1 <0>        -0.5268
     13 C11         2.2845   -0.0444   -1.8141 C.2       1 <0>         0.5480
     14 O2          2.5949    1.0362   -2.2678 O.2       1 <0>        -0.4679
     15 C12         4.5291   -0.3567   -1.1702 C.ar      1 <0>         0.1419
     16 C13         4.9354    0.4261   -0.0951 C.ar      1 <0>        -0.0961
     17 C14         6.2309    0.8889   -0.0288 C.ar      1 <0>        -0.0589
     18 C15         7.1376    0.5704   -1.0434 C.ar      1 <0>        -0.0131
     19 C16         6.7256   -0.2170   -2.1220 C.ar      1 <0>        -0.0589
     20 C17         5.4300   -0.6804   -2.1788 C.ar      1 <0>        -0.0958
     21 C18         8.4853    1.0501   -0.9783 C.1       1 <0>         0.2502
     22 N2          9.5544    1.4306   -0.9266 N.1       1 <0>        -0.4041
     23 C19         0.4506   -0.5422   -3.3766 C.3       1 <0>        -0.1101
     24 C20         1.2960   -1.5790   -4.1189 C.3       1 <0>        -0.1601
     25 H1          0.1361   -0.3979    0.7508 H         1 <0>         0.0606
     26 H2          1.3970    0.8062    0.3920 H         1 <0>         0.0484
     27 H3         -0.2563    1.3380    0.7823 H         1 <0>         0.0686
     28 H4         -1.0776    0.2283   -1.2983 H         1 <0>         0.0868
     29 H5          0.1266    1.4923   -1.6454 H         1 <0>         0.0857
     30 H6         -1.5419   -1.8292   -1.7953 H         1 <0>         0.1371
     31 H7         -1.9866   -4.0504   -0.8219 H         1 <0>         0.1356
     32 H8         -0.1622   -5.3400    0.2037 H         1 <0>         0.1362
     33 H9          2.1204   -4.4265    0.2676 H         1 <0>         0.1417
     34 H10         4.2341    0.6718    0.6886 H         1 <0>         0.1363
     35 H11         6.5455    1.4974    0.8062 H         1 <0>         0.1437
     36 H12         7.4235   -0.4648   -2.9082 H         1 <0>         0.1437
     37 H13         5.1120   -1.2926   -3.0098 H         1 <0>         0.1364
     38 H14        -0.6040   -0.8037   -3.4635 H         1 <0>         0.0868
     39 H15         0.6178    0.4426   -3.8127 H         1 <0>         0.0856
     40 H16         2.3532   -1.3684   -3.9580 H         1 <0>         0.0479
     41 H17         1.0626   -2.5750   -3.7425 H         1 <0>         0.0609
     42 H18         1.0744   -1.5324   -5.1852 H         1 <0>         0.0683
@<TRIPOS>BOND
     1    1    2 1
     2    1   25 1
     3    1   26 1
     4    1   27 1
     5    2    3 1
     6    2   28 1
     7    2   29 1
     8    3   13 1
     9    3    4 1
    10    3   23 1
    11    4    9 ar
    12    4    5 ar
    13    5    6 ar
    14    5   30 1
    15    6    7 ar
    16    6   31 1
    17    7    8 ar
    18    7   32 1
    19    8    9 ar
    20    8   33 1
    21    9   10 1
    22   10   11 2
    23   10   12 am
    24   12   13 am
    25   12   15 1
    26   13   14 2
    27   15   20 ar
    28   15   16 ar
    29   16   17 ar
    30   16   34 1
    31   17   18 ar
    32   17   35 1
    33   18   19 ar
    34   18   21 1
    35   19   20 ar
    36   19   36 1
    37   20   37 1
    38   21   22 3
    39   23   24 1
    40   23   38 1
    41   23   39 1
    42   24   40 1
    43   24   41 1
    44   24   42 1
@<TRIPOS>MOLECULE
CHEMBL509935
   37    39     0     0     0
SMALL
USER_CHARGES

@<TRIPOS>ATOM
      1 C1         -0.0187    1.5258    0.0104 C.3       1 <0>        -0.1445
      2 C2          0.0021   -0.0041    0.0020 C.3       1 <0>         0.1541
      3 C3          0.4680   -0.4616   -1.3454 C.ar      1 <0>        -0.1179
      4 C4          0.2825    0.4373   -2.3906 C.ar      1 <0>        -0.0721
      5 C5          0.6762    0.1269   -3.6848 C.ar      1 <0>        -0.0604
      6 C6          1.2694   -1.1095   -3.9378 C.ar      1 <0>        -0.0674
      7 C7          1.4513   -1.9956   -2.9075 C.ar      1 <0>        -0.1421
      8 C8          1.0517   -1.6881   -1.5944 C.ar      1 <0>         0.1539
      9 N1          1.2875   -2.6754   -0.6654 N.pl3     1 <0>        -0.5675
     10 C9          1.2202   -2.7529    0.6369 C.2       1 <0>         0.2413
     11 S1          1.8691   -4.0467    1.3165 S.2       1 <0>        -0.4293
     12 C10         0.5987   -1.7542    1.5516 C.3       1 <0>         0.0754
     13 O1          0.7786   -0.4390    1.0782 O.3       1 <0>        -0.3513
     14 C11         0.4682    1.0988   -4.7861 C.ar      1 <0>         0.0188
     15 C12        -0.1203    2.3347   -4.5255 C.ar      1 <0>        -0.1599
     16 C13        -0.3118    3.2376   -5.5548 C.ar      1 <0>         0.1405
     17 C14         0.0802    2.9152   -6.8435 C.ar      1 <0>        -0.1920
     18 C15         0.6656    1.6878   -7.1072 C.ar      1 <0>         0.1405
     19 C16         0.8658    0.7809   -6.0831 C.ar      1 <0>        -0.1583
     20 F1          1.0461    1.3786   -8.3660 F         1 <0>        -0.1263
     21 F2         -0.8826    4.4359   -5.3033 F         1 <0>        -0.1263
     22 C17        -1.4292   -0.5039    0.2079 C.3       1 <0>        -0.1889
     23 H1          0.9718    1.9040   -0.2425 H         1 <0>         0.0718
     24 H2         -0.7422    1.8834   -0.7222 H         1 <0>         0.0795
     25 H3         -0.3005    1.8799    1.0020 H         1 <0>         0.0767
     26 H4         -0.1768    1.3943   -2.1914 H         1 <0>         0.1449
     27 H5          1.5830   -1.3675   -4.9385 H         1 <0>         0.1413
     28 H6          1.9111   -2.9518   -3.1088 H         1 <0>         0.1383
     29 H7          1.5693   -3.5093   -1.0730 H         1 <0>         0.4140
     30 H8         -0.4685   -1.9607    1.6324 H         1 <0>         0.1003
     31 H9          1.0534   -1.8432    2.5382 H         1 <0>         0.1519
     32 H10        -0.4266    2.5868   -3.5210 H         1 <0>         0.1454
     33 H11        -0.0712    3.6227   -7.6452 H         1 <0>         0.1520
     34 H12         1.3260   -0.1742   -6.2889 H         1 <0>         0.1473
     35 H13        -2.0628   -0.1339   -0.5981 H         1 <0>         0.0786
     36 H14        -1.4374   -1.5939    0.2053 H         1 <0>         0.0585
     37 H15        -1.8072   -0.1401    1.1634 H         1 <0>         0.0792
@<TRIPOS>BOND
     1    1    2 1
     2    1   23 1
     3    1   24 1
     4    1   25 1
     5    2   13 1
     6    2    3 1
     7    2   22 1
     8    3    8 ar
     9    3    4 ar
    10    4    5 ar
    11    4   26 1
    12    5    6 ar
    13    5   14 1
    14    6    7 ar
    15    6   27 1
    16    7    8 ar
    17    7   28 1
    18    8    9 1
    19    9   10 1
    20    9   29 1
    21   10   11 2
    22   10   12 1
    23   12   13 1
    24   12   30 1
    25   12   31 1
    26   14   19 ar
    27   14   15 ar
    28   15   16 ar
    29   15   32 1
    30   16   17 ar
    31   16   21 1
    32   17   18 ar
    33   17   33 1
    34   18   19 ar
    35   18   20 1
    36   19   34 1
    37   22   35 1
    38   22   36 1
    39   22   37 1
@<TRIPOS>MOLECULE
CHEMBL49978
   48    49     0     0     0
SMALL
USER_CHARGES

@<TRIPOS>ATOM
      1 C1         -0.0184    1.5028    0.0103 C.3       1 <0>        -0.1237
      2 C2          0.0021   -0.0041    0.0020 C.2       1 <0>        -0.1078
      3 C3          0.0049   -0.6255   -1.1642 C.2       1 <0>        -0.1314
      4 C4          0.0153   -2.0995   -1.2289 C.2       1 <0>        -0.0781
      5 C5         -0.2044   -2.7391   -2.3726 C.2       1 <0>        -0.1818
      6 C6          0.2847   -2.8582    0.0545 C.3       1 <0>        -0.0368
      7 C7         -0.4980   -2.1541    1.1723 C.3       1 <0>        -0.0559
      8 C8          0.0243   -0.7235    1.3176 C.3       1 <0>        -0.0765
      9 C9         -0.2984   -2.9067    2.4893 C.3       1 <0>        -0.1460
     10 C10        -1.9859   -2.1271    0.8165 C.3       1 <0>        -0.1415
     11 C11         1.7814   -2.8320    0.3707 C.3       1 <0>        -0.0871
     12 C12         2.5335   -3.5845   -0.6966 C.2       1 <0>        -0.1189
     13 C13         3.5226   -2.9930   -1.3529 C.2       1 <0>        -0.1244
     14 C14         4.2599   -3.7306   -2.3992 C.ar      1 <0>        -0.0155
     15 C15         3.9142   -5.0478   -2.7032 C.ar      1 <0>        -0.1902
     16 C16         4.6085   -5.7334   -3.6841 C.ar      1 <0>         0.1529
     17 C17         5.6483   -5.1132   -4.3656 C.ar      1 <0>        -0.1166
     18 C18         5.9959   -3.8084   -4.0688 C.ar      1 <0>        -0.0753
     19 C19         5.3042   -3.1092   -3.0935 C.ar      1 <0>         0.0801
     20 O1          5.6427   -1.8245   -2.8073 O.3       1 <0>        -0.4859
     21 Br1         6.5923   -6.0579   -5.7044 Br        1 <0>        -0.0296
     22 O2          4.2727   -7.0173   -3.9814 O.3       1 <0>        -0.3011
     23 C20         3.1943   -7.5937   -3.2420 C.3       1 <0>         0.0233
     24 H1          1.0042    1.8801    0.0026 H         1 <0>         0.0680
     25 H2         -0.5455    1.8639   -0.8728 H         1 <0>         0.0634
     26 H3         -0.5286    1.8543    0.9071 H         1 <0>         0.0632
     27 H4         -0.0007   -0.0495   -2.0777 H         1 <0>         0.1123
     28 H5         -0.3949   -2.1794   -3.2764 H         1 <0>         0.0983
     29 H6         -0.1925   -3.8187   -2.3985 H         1 <0>         0.0971
     30 H7         -0.0565   -3.8886   -0.0450 H         1 <0>         0.0786
     31 H8          1.0472   -0.7495    1.6932 H         1 <0>         0.0774
     32 H9         -0.6028   -0.1864    2.0291 H         1 <0>         0.0723
     33 H10         0.7617   -2.9211    2.7425 H         1 <0>         0.0587
     34 H11        -0.8545   -2.4059    3.2819 H         1 <0>         0.0577
     35 H12        -0.6602   -3.9293    2.3819 H         1 <0>         0.0576
     36 H13        -2.3514   -3.1480    0.7054 H         1 <0>         0.0535
     37 H14        -2.5403   -1.6271    1.6107 H         1 <0>         0.0543
     38 H15        -2.1258   -1.5871   -0.1199 H         1 <0>         0.0613
     39 H16         2.1285   -1.7992    0.4001 H         1 <0>         0.0755
     40 H17         1.9567   -3.3019    1.3384 H         1 <0>         0.0826
     41 H18         2.2671   -4.6054   -0.9271 H         1 <0>         0.1097
     42 H19         3.7891   -1.9721   -1.1225 H         1 <0>         0.1259
     43 H20         3.1066   -5.5313   -2.1736 H         1 <0>         0.1422
     44 H21         6.8056   -3.3320   -4.6015 H         1 <0>         0.1464
     45 H22         6.3149   -1.7393   -2.1173 H         1 <0>         0.3890
     46 H23         3.0305   -8.6179   -3.5771 H         1 <0>         0.1063
     47 H24         3.4410   -7.5939   -2.1802 H         1 <0>         0.0580
     48 H25         2.2888   -7.0090   -3.4045 H         1 <0>         0.0582
@<TRIPOS>BOND
     1    1    2 1
     2    1   24 1
     3    1   25 1
     4    1   26 1
     5    2    8 1
     6    2    3 2
     7    3    4 1
     8    3   27 1
     9    4    5 2
    10    4    6 1
    11    5   28 1
    12    5   29 1
    13    6    7 1
    14    6   11 1
    15    6   30 1
    16    7    8 1
    17    7    9 1
    18    7   10 1
    19    8   31 1
    20    8   32 1
    21    9   33 1
    22    9   34 1
    23    9   35 1
    24   10   36 1
    25   10   37 1
    26   10   38 1
    27   11   12 1
    28   11   39 1
    29   11   40 1
    30   12   13 2
    31   12   41 1
    32   13   14 1
    33   13   42 1
    34   14   19 ar
    35   14   15 ar
    36   15   16 ar
    37   15   43 1
    38   16   17 ar
    39   16   22 1
    40   17   18 ar
    41   17   21 1
    42   18   19 ar
    43   18   44 1
    44   19   20 1
    45   20   45 1
    46   22   23 1
    47   23   46 1
    48   23   47 1
    49   23   48 1
@<TRIPOS>MOLECULE
CHEMBL49978__1
   48    49     0     0     0
SMALL
USER_CHARGES

@<TRIPOS>ATOM
      1 C1         -0.0184    1.5028    0.0103 C.3       1 <0>        -0.1245
      2 C2          0.0021   -0.0041    0.0020 C.2       1 <0>        -0.1025
      3 C3          0.0049   -0.6255   -1.1642 C.2       1 <0>        -0.1376
      4 C4          0.0350   -2.0992   -1.2290 C.2       1 <0>        -0.0756
      5 C5          0.2610   -2.7326   -2.3750 C.2       1 <0>        -0.1913
      6 C6         -0.2004   -2.8650    0.0570 C.3       1 <0>        -0.0379
      7 C7          0.5736   -2.1391    1.1669 C.3       1 <0>        -0.0557
      8 C8          0.0243   -0.7235    1.3176 C.3       1 <0>        -0.0781
      9 C9          0.4081   -2.8969    2.4858 C.3       1 <0>        -0.1461
     10 C10         2.0564   -2.0708    0.7964 C.3       1 <0>        -0.1422
     11 C11        -1.6940   -2.8804    0.3880 C.3       1 <0>        -0.0865
     12 C12        -2.4355   -3.6537   -0.6718 C.2       1 <0>        -0.1193
     13 C13        -3.2114   -4.6729   -0.3283 C.2       1 <0>        -0.1306
     14 C14        -3.9382   -5.4309   -1.3672 C.ar      1 <0>        -0.0170
     15 C15        -3.8060   -5.0806   -2.7113 C.ar      1 <0>        -0.1903
     16 C16        -4.4893   -5.7944   -3.6797 C.ar      1 <0>         0.1532
     17 C17        -5.3063   -6.8577   -3.3162 C.ar      1 <0>        -0.1164
     18 C18        -5.4419   -7.2095   -1.9861 C.ar      1 <0>        -0.0753
     19 C19        -4.7578   -6.5070   -1.0079 C.ar      1 <0>         0.0798
     20 O1         -4.8870   -6.8580    0.2987 O.3       1 <0>        -0.4862
     21 Br1        -6.2371   -7.8274   -4.6463 Br        1 <0>        -0.0293
     22 O2         -4.3613   -5.4541   -4.9902 O.3       1 <0>        -0.3010
     23 C20        -3.5057   -4.3504   -5.2934 C.3       1 <0>         0.0232
     24 H1          1.0042    1.8801    0.0026 H         1 <0>         0.0691
     25 H2         -0.5455    1.8639   -0.8728 H         1 <0>         0.0635
     26 H3         -0.5286    1.8543    0.9071 H         1 <0>         0.0641
     27 H4         -0.0153   -0.0497   -2.0777 H         1 <0>         0.1131
     28 H5          0.4268   -2.1679   -3.2805 H         1 <0>         0.0993
     29 H6          0.2789   -3.8121   -2.4009 H         1 <0>         0.0997
     30 H7          0.1684   -3.8855   -0.0461 H         1 <0>         0.0806
     31 H8          0.6494   -0.1689    2.0175 H         1 <0>         0.0739
     32 H9         -0.9903   -0.7780    1.7122 H         1 <0>         0.0780
     33 H10         0.7972   -3.9090    2.3746 H         1 <0>         0.0584
     34 H11         0.9579   -2.3807    3.2728 H         1 <0>         0.0577
     35 H12        -0.6486   -2.9407    2.7495 H         1 <0>         0.0590
     36 H13         2.1719   -1.5273   -0.1414 H         1 <0>         0.0607
     37 H14         2.6046   -1.5554    1.5850 H         1 <0>         0.0546
     38 H15         2.4491   -3.0811    0.6814 H         1 <0>         0.0539
     39 H16        -1.8464   -3.3549    1.3574 H         1 <0>         0.0773
     40 H17        -2.0695   -1.8577    0.4211 H         1 <0>         0.0813
     41 H18        -2.3350   -3.3779   -1.7112 H         1 <0>         0.1134
     42 H19        -3.3119   -4.9487    0.7111 H         1 <0>         0.1273
     43 H20        -3.1718   -4.2538   -2.9951 H         1 <0>         0.1432
     44 H21        -6.0790   -8.0366   -1.7097 H         1 <0>         0.1467
     45 H22        -5.6112   -6.4098    0.7567 H         1 <0>         0.3893
     46 H23        -3.4931   -4.1856   -6.3708 H         1 <0>         0.1062
     47 H24        -3.8760   -3.4555   -4.7932 H         1 <0>         0.0581
     48 H25        -2.4953   -4.5683   -4.9473 H         1 <0>         0.0589
@<TRIPOS>BOND
     1    1    2 1
     2    1   24 1
     3    1   25 1
     4    1   26 1
     5    2    8 1
     6    2    3 2
     7    3    4 1
     8    3   27 1
     9    4    5 2
    10    4    6 1
    11    5   28 1
    12    5   29 1
    13    6    7 1
    14    6   11 1
    15    6   30 1
    16    7    8 1
    17    7    9 1
    18    7   10 1
    19    8   31 1
    20    8   32 1
    21    9   33 1
    22    9   34 1
    23    9   35 1
    24   10   36 1
    25   10   37 1
    26   10   38 1
    27   11   12 1
    28   11   39 1
    29   11   40 1
    30   12   13 2
    31   12   41 1
    32   13   14 1
    33   13   42 1
    34   14   19 ar
    35   14   15 ar
    36   15   16 ar
    37   15   43 1
    38   16   17 ar
    39   16   22 1
    40   17   18 ar
    41   17   21 1
    42   18   19 ar
    43   18   44 1
    44   19   20 1
    45   20   45 1
    46   22   23 1
    47   23   46 1
    48   23   47 1
    49   23   48 1
@<TRIPOS>MOLECULE
CHEMBL519560
   34    36     0     0     0
SMALL
USER_CHARGES

@<TRIPOS>ATOM
      1 C1         -0.0184    1.5028    0.0103 C.3       1 <0>        -0.1858
      2 C2          0.0021   -0.0041    0.0020 C.2       1 <0>         0.3948
      3 N1          0.0044   -0.5865   -1.1334 N.pl3     1 <0>        -0.5253
      4 C3          0.0188   -2.0435   -1.2561 C.3       1 <0>         0.0366
      5 C4         -1.2517   -2.5937   -0.6672 C.2       1 <0>         0.5022
      6 O1         -2.0281   -3.1870   -1.3856 O.2       1 <0>        -0.4652
      7 N2         -1.5445   -2.4457    0.6230 N.am      1 <0>        -0.6588
      8 C5         -0.7232   -1.8414    1.5611 C.ar      1 <0>         0.2063
      9 C6          0.0237   -0.6873    1.2992 C.ar      1 <0>        -0.1751
     10 C7          0.8313   -0.1406    2.3071 C.ar      1 <0>        -0.0289
     11 C8          0.8977   -0.7400    3.5560 C.ar      1 <0>        -0.0346
     12 C9          0.1562   -1.8947    3.8114 C.ar      1 <0>        -0.0223
     13 C10        -0.6504   -2.4345    2.8240 C.ar      1 <0>        -0.1321
     14 C11         1.7545   -0.1559    4.6171 C.ar      1 <0>        -0.0674
     15 C12         2.4906    1.0001    4.3635 C.ar      1 <0>        -0.0720
     16 C13         3.2860    1.5406    5.3529 C.ar      1 <0>        -0.1355
     17 C14         3.3543    0.9359    6.5975 C.ar      1 <0>         0.1306
     18 C15         2.6240   -0.2141    6.8547 C.ar      1 <0>        -0.0726
     19 C16         1.8210   -0.7583    5.8717 C.ar      1 <0>        -0.0658
     20 Cl1         2.7138   -0.9671    8.4163 Cl        1 <0>        -0.0277
     21 F1          4.1351    1.4682    7.5630 F         1 <0>        -0.1148
     22 H1          1.0042    1.8801    0.0026 H         1 <0>         0.1424
     23 H2         -0.5455    1.8639   -0.8728 H         1 <0>         0.1184
     24 H3         -0.5286    1.8543    0.9071 H         1 <0>         0.1333
     25 H4          0.0836   -2.3207   -2.3083 H         1 <0>         0.1714
     26 H5          0.8759   -2.4469   -0.7168 H         1 <0>         0.1496
     27 H6         -2.3990   -2.7870    0.9300 H         1 <0>         0.4315
     28 H7          1.4054    0.7526    2.1094 H         1 <0>         0.1558
     29 H8          0.2065   -2.3646    4.7825 H         1 <0>         0.1562
     30 H9         -1.2217   -3.3282    3.0270 H         1 <0>         0.1580
     31 H10         2.4388    1.4721    3.3935 H         1 <0>         0.1422
     32 H11         3.8565    2.4363    5.1567 H         1 <0>         0.1553
     33 H12         1.2488   -1.6517    6.0738 H         1 <0>         0.1496
     34 H13        -0.0033   -0.0465   -1.9392 H         1 <0>         0.4495
@<TRIPOS>BOND
     1    1    2 1
     2    1   22 1
     3    1   23 1
     4    1   24 1
     5    2    9 1
     6    2    3 2
     7    3    4 1
     8    3   34 1
     9    4    5 1
    10    4   25 1
    11    4   26 1
    12    5    6 2
    13    5    7 am
    14    7    8 1
    15    7   27 1
    16    8   13 ar
    17    8    9 ar
    18    9   10 ar
    19   10   11 ar
    20   10   28 1
    21   11   12 ar
    22   11   14 1
    23   12   13 ar
    24   12   29 1
    25   13   30 1
    26   14   19 ar
    27   14   15 ar
    28   15   16 ar
    29   15   31 1
    30   16   17 ar
    31   16   32 1
    32   17   18 ar
    33   17   21 1
    34   18   19 ar
    35   18   20 1
    36   19   33 1
@<TRIPOS>MOLECULE
CHEMBL519560__1
   33    35     0     0     0
SMALL
USER_CHARGES

@<TRIPOS>ATOM
      1 C1         -0.0184    1.5028    0.0103 C.3       1 <0>        -0.1175
      2 C2          0.0021   -0.0041    0.0020 C.2       1 <0>         0.2227
      3 N1          0.0044   -0.5865   -1.1334 N.2       1 <0>        -0.4975
      4 C3          0.0184   -2.0435   -1.2561 C.3       1 <0>         0.0218
      5 C4         -1.2522   -2.5933   -0.6669 C.2       1 <0>         0.5115
      6 O1         -2.0289   -3.1864   -1.3852 O.2       1 <0>        -0.5139
      7 N2         -1.5447   -2.4452    0.6233 N.am      1 <0>        -0.6632
      8 C5         -0.7230   -1.8412    1.5613 C.ar      1 <0>         0.1776
      9 C6          0.0237   -0.6873    1.2992 C.ar      1 <0>        -0.1304
     10 C7          0.8313   -0.1406    2.3071 C.ar      1 <0>        -0.0502
     11 C8          0.8977   -0.7400    3.5560 C.ar      1 <0>        -0.0587
     12 C9          0.1562   -1.8947    3.8114 C.ar      1 <0>        -0.0655
     13 C10        -0.6501   -2.4343    2.8241 C.ar      1 <0>        -0.1386
     14 C11         1.7545   -0.1559    4.6171 C.ar      1 <0>        -0.0412
     15 C12         2.4906    1.0001    4.3635 C.ar      1 <0>        -0.0778
     16 C13         3.2860    1.5406    5.3529 C.ar      1 <0>        -0.1347
     17 C14         3.3543    0.9359    6.5975 C.ar      1 <0>         0.1126
     18 C15         2.6240   -0.2141    6.8547 C.ar      1 <0>        -0.0702
     19 C16         1.8210   -0.7583    5.8717 C.ar      1 <0>        -0.0753
     20 Cl1         2.7138   -0.9671    8.4163 Cl        1 <0>        -0.0418
     21 F1          4.1351    1.4682    7.5630 F         1 <0>        -0.1229
     22 H1          1.0042    1.8801    0.0026 H         1 <0>         0.0877
     23 H2         -0.5455    1.8639   -0.8728 H         1 <0>         0.0862
     24 H3         -0.5286    1.8543    0.9071 H         1 <0>         0.0806
     25 H4          0.0829   -2.3208   -2.3083 H         1 <0>         0.1309
     26 H5          0.8754   -2.4472   -0.7170 H         1 <0>         0.0926
     27 H6         -2.3993   -2.7862    0.9305 H         1 <0>         0.4129
     28 H7          1.4054    0.7526    2.1094 H         1 <0>         0.1417
     29 H8          0.2065   -2.3646    4.7825 H         1 <0>         0.1387
     30 H9         -1.2217   -3.3278    3.0272 H         1 <0>         0.1394
     31 H10         2.4388    1.4721    3.3935 H         1 <0>         0.1445
     32 H11         3.8565    2.4363    5.1567 H         1 <0>         0.1507
     33 H12         1.2488   -1.6517    6.0738 H         1 <0>         0.1472
@<TRIPOS>BOND
     1    1    2 1
     2    1   22 1
     3    1   23 1
     4    1   24 1
     5    2    9 1
     6    2    3 2
     7    3    4 1
     8    4    5 1
     9    4   25 1
    10    4   26 1
    11    5    6 2
    12    5    7 am
    13    7    8 1
    14    7   27 1
    15    8   13 ar
    16    8    9 ar
    17    9   10 ar
    18   10   11 ar
    19   10   28 1
    20   11   12 ar
    21   11   14 1
    22   12   13 ar
    23   12   29 1
    24   13   30 1
    25   14   19 ar
    26   14   15 ar
    27   15   16 ar
    28   15   31 1
    29   16   17 ar
    30   16   32 1
    31   17   18 ar
    32   17   21 1
    33   18   19 ar
    34   18   20 1
    35   19   33 1
@<TRIPOS>MOLECULE
CHEMBL86134
   54    58     0     0     0
SMALL
USER_CHARGES

@<TRIPOS>ATOM
      1 C1          0.8531    1.2532   -3.0200 C.ar      1 <0>        -0.1177
      2 C2          1.9602    1.9972   -2.6159 C.ar      1 <0>        -0.1160
      3 C3          3.0879    1.3853   -2.1620 C.ar      1 <0>        -0.1071
      4 C4          3.1401   -0.0176   -2.0982 C.ar      1 <0>        -0.0472
      5 C5          4.2868   -0.6850   -1.6347 C.ar      1 <0>        -0.1018
      6 C6          4.3010   -2.0450   -1.5864 C.ar      1 <0>        -0.0744
      7 C7          3.1938   -2.7890   -1.9902 C.ar      1 <0>        -0.1106
      8 C8          2.0662   -2.1771   -2.4445 C.ar      1 <0>        -0.1054
      9 C9          2.0142   -0.7741   -2.5087 C.ar      1 <0>        -0.0552
     10 C10         0.8675   -0.1068   -2.9721 C.ar      1 <0>        -0.1071
     11 C11         5.5325   -2.7572   -1.0894 C.3       1 <0>        -0.0748
     12 C12         5.4308   -2.9559    0.4243 C.3       1 <0>        -0.0741
     13 C13         4.2985   -3.9461    0.7484 C.3       1 <0>        -0.1165
     14 C14         4.5727   -5.3255    0.1579 C.3       1 <0>        -0.1202
     15 C15         5.9461   -5.8670    0.5885 C.3       1 <0>        -0.1153
     16 C16         6.9841   -4.8564    0.1358 C.3       1 <0>        -0.0966
     17 C17         6.7126   -3.5583    0.9521 C.3       1 <0>         0.1419
     18 N1          7.9535   -2.8225    0.7983 N.pl3     1 <0>        -0.5084
     19 N2          8.9826   -3.7334    0.6634 N.3       1 <0>        -0.4292
     20 C18         8.4254   -5.1148    0.5970 C.3       1 <0>         0.0027
     21 C19         8.4470   -5.7695    1.9542 C.2       1 <0>         0.3221
     22 O1          8.9987   -5.2236    2.8793 O.2       1 <0>        -0.4487
     23 C20         8.0848   -1.4305    0.7885 C.ar      1 <0>         0.2143
     24 C21         7.4513   -0.6653    1.7590 C.ar      1 <0>        -0.1273
     25 C22         7.5827    0.7095    1.7476 C.ar      1 <0>        -0.1268
     26 C23         8.3455    1.3250    0.7695 C.ar      1 <0>         0.0714
     27 C24         8.9781    0.5641   -0.1991 C.ar      1 <0>        -0.1295
     28 C25         8.8536   -0.8115   -0.1884 C.ar      1 <0>        -0.1117
     29 F1          8.4724    2.6700    0.7600 F         1 <0>        -0.1421
     30 H1         -0.0311    1.7637   -3.3722 H         1 <0>         0.1226
     31 H2          1.9227    3.0755   -2.6639 H         1 <0>         0.1227
     32 H3          3.9384    1.9748   -1.8529 H         1 <0>         0.1258
     33 H4          5.1524   -0.1216   -1.3189 H         1 <0>         0.1237
     34 H5          3.2313   -3.8673   -1.9422 H         1 <0>         0.1220
     35 H6          1.2160   -2.7665   -2.7544 H         1 <0>         0.1259
     36 H7          0.0021   -0.6703   -3.2882 H         1 <0>         0.1258
     37 H8          5.6133   -3.7279   -1.5786 H         1 <0>         0.0783
     38 H9          6.4151   -2.1601   -1.3189 H         1 <0>         0.0781
     39 H10         5.2410   -1.9999    0.9123 H         1 <0>         0.0794
     40 H11         4.2023   -4.0350    1.8305 H         1 <0>         0.0623
     41 H12         3.3633   -3.5635    0.3395 H         1 <0>         0.0766
     42 H13         3.7980   -6.0155    0.4921 H         1 <0>         0.0697
     43 H14         4.5422   -5.2589   -0.9297 H         1 <0>         0.0677
     44 H15         5.9801   -5.9745    1.6727 H         1 <0>         0.0660
     45 H16         6.1321   -6.8297    0.1125 H         1 <0>         0.0799
     46 H17         6.9338   -4.6920   -0.9406 H         1 <0>         0.1128
     47 H18         6.5839   -3.8159    2.0034 H         1 <0>         0.0528
     48 H19         9.6441   -3.6463    1.4203 H         1 <0>         0.3361
     49 H20         8.9656   -5.7177   -0.1330 H         1 <0>         0.1411
     50 H21         7.9689   -6.7270    2.0995 H         1 <0>         0.1053
     51 H22         6.8559   -1.1450    2.5218 H         1 <0>         0.1270
     52 H23         7.0900    1.3050    2.5019 H         1 <0>         0.1355
     53 H24         9.5722    1.0463   -0.9612 H         1 <0>         0.1361
     54 H25         9.3508   -1.4049   -0.9414 H         1 <0>         0.1379
@<TRIPOS>BOND
     1    1   10 ar
     2    1    2 ar
     3    1   30 1
     4    2    3 ar
     5    2   31 1
     6    3    4 ar
     7    3   32 1
     8    4    9 ar
     9    4    5 ar
    10    5    6 ar
    11    5   33 1
    12    6    7 ar
    13    6   11 1
    14    7    8 ar
    15    7   34 1
    16    8    9 ar
    17    8   35 1
    18    9   10 ar
    19   10   36 1
    20   11   12 1
    21   11   37 1
    22   11   38 1
    23   12   17 1
    24   12   13 1
    25   12   39 1
    26   13   14 1
    27   13   40 1
    28   13   41 1
    29   14   15 1
    30   14   42 1
    31   14   43 1
    32   15   16 1
    33   15   44 1
    34   15   45 1
    35   16   20 1
    36   16   17 1
    37   16   46 1
    38   17   18 1
    39   17   47 1
    40   18   19 1
    41   18   23 1
    42   19   20 1
    43   19   48 1
    44   20   21 1
    45   20   49 1
    46   21   22 2
    47   21   50 1
    48   23   28 ar
    49   23   24 ar
    50   24   25 ar
    51   24   51 1
    52   25   26 ar
    53   25   52 1
    54   26   27 ar
    55   26   29 1
    56   27   28 ar
    57   27   53 1
    58   28   54 1
@<TRIPOS>MOLECULE
CHEMBL191176
   43    46     0     0     0
SMALL
USER_CHARGES

@<TRIPOS>ATOM
      1 C1         -0.0168    1.3907    0.0097 C.ar      1 <0>        -0.0931
      2 C2          1.1657    2.0997    0.0022 C.ar      1 <0>        -0.0997
      3 C3          2.3787    1.4261   -0.0134 C.ar      1 <0>         0.0993
      4 C4          2.4034    0.0286   -0.0211 C.ar      1 <0>         0.0970
      5 C5          1.2171   -0.6843   -0.0139 C.ar      1 <0>        -0.0900
      6 C6          0.0021   -0.0041    0.0020 C.ar      1 <0>        -0.0435
      7 C7         -1.2729   -0.7632    0.0101 C.ar      1 <0>        -0.0045
      8 C8         -2.4873   -0.0845    0.0195 C.ar      1 <0>        -0.0743
      9 C9         -3.6819   -0.8032    0.0271 C.ar      1 <0>         0.0129
     10 C10        -3.6529   -2.1998    0.0252 C.ar      1 <0>        -0.1092
     11 C11        -2.4425   -2.8674    0.0162 C.ar      1 <0>         0.1116
     12 C12        -1.2551   -2.1570    0.0024 C.ar      1 <0>        -0.1210
     13 F1         -2.4188   -4.2182    0.0148 F         1 <0>        -0.1284
     14 C13        -4.9356   -0.1114    0.0373 C.1       1 <0>         0.2482
     15 N1         -5.9302    0.4375    0.0454 N.1       1 <0>        -0.3957
     16 N2          3.7443   -0.3499   -0.0360 N.am      1 <0>        -0.5337
     17 C14         4.4992    0.7647   -0.0372 C.2       1 <0>         0.6830
     18 N3          3.7046    1.8513   -0.0238 N.am      1 <0>        -0.6437
     19 O1          5.7158    0.7867   -0.0480 O.2       1 <0>        -0.5457
     20 C15         4.2467   -1.7260   -0.0477 C.3       1 <0>         0.1662
     21 C16         5.1112   -1.9639    1.1921 C.3       1 <0>        -0.1354
     22 C17         5.6360   -3.4010    1.1798 C.3       1 <0>        -0.1140
     23 C18         6.4763   -3.6264   -0.0787 C.3       1 <0>        -0.1248
     24 C19         5.6118   -3.3885   -1.3185 C.3       1 <0>        -0.1140
     25 C20         5.0870   -1.9514   -1.3063 C.3       1 <0>        -0.1353
     26 H1         -0.9601    1.9165    0.0260 H         1 <0>         0.1400
     27 H2          1.1479    3.1796    0.0081 H         1 <0>         0.1379
     28 H3          1.2337   -1.7642   -0.0201 H         1 <0>         0.1349
     29 H4         -2.5045    0.9953    0.0213 H         1 <0>         0.1460
     30 H5         -4.5772   -2.7585    0.0310 H         1 <0>         0.1486
     31 H6         -0.3123   -2.6837   -0.0098 H         1 <0>         0.1466
     32 H7          3.4061   -2.4198   -0.0430 H         1 <0>         0.0977
     33 H8          5.9519   -1.2700    1.1874 H         1 <0>         0.0827
     34 H9          4.5126   -1.8033    2.0887 H         1 <0>         0.0664
     35 H10         6.2519   -3.5704    2.0631 H         1 <0>         0.0699
     36 H11         4.7954   -4.0948    1.1845 H         1 <0>         0.0647
     37 H12         7.3170   -2.9326   -0.0834 H         1 <0>         0.0661
     38 H13         6.8502   -4.6502   -0.0875 H         1 <0>         0.0667
     39 H14         6.2105   -3.5491   -2.2151 H         1 <0>         0.0699
     40 H15         4.7712   -4.0824   -1.3138 H         1 <0>         0.0647
     41 H16         4.4712   -1.7820   -2.1895 H         1 <0>         0.0664
     42 H17         5.9277   -1.2576   -1.3109 H         1 <0>         0.0827
     43 H18         4.0047    2.7737   -0.0223 H         1 <0>         0.4360
@<TRIPOS>BOND
     1    1    6 ar
     2    1    2 ar
     3    1   26 1
     4    2    3 ar
     5    2   27 1
     6    3   18 1
     7    3    4 ar
     8    4    5 ar
     9    4   16 1
    10    5    6 ar
    11    5   28 1
    12    6    7 1
    13    7   12 ar
    14    7    8 ar
    15    8    9 ar
    16    8   29 1
    17    9   10 ar
    18    9   14 1
    19   10   11 ar
    20   10   30 1
    21   11   12 ar
    22   11   13 1
    23   12   31 1
    24   14   15 3
    25   16   17 am
    26   16   20 1
    27   17   18 am
    28   17   19 2
    29   18   43 1
    30   20   25 1
    31   20   21 1
    32   20   32 1
    33   21   22 1
    34   21   33 1
    35   21   34 1
    36   22   23 1
    37   22   35 1
    38   22   36 1
    39   23   24 1
    40   23   37 1
    41   23   38 1
    42   24   25 1
    43   24   39 1
    44   24   40 1
    45   25   41 1
    46   25   42 1
@<TRIPOS>MOLECULE
CHEMBL191176__1
   43    46     0     0     0
SMALL
USER_CHARGES

@<TRIPOS>ATOM
      1 C1         -0.0169    1.3933    0.0097 C.ar      1 <0>        -0.1092
      2 C2          1.1490    2.1022    0.0024 C.ar      1 <0>        -0.0581
      3 C3          2.3758    1.4321   -0.0130 C.ar      1 <0>         0.0688
      4 C4          2.4009    0.0263   -0.0208 C.ar      1 <0>         0.0560
      5 C5          1.2144   -0.6868   -0.0129 C.ar      1 <0>        -0.0876
      6 C6          0.0021   -0.0041    0.0020 C.ar      1 <0>        -0.0373
      7 C7         -1.2735   -0.7614    0.0106 C.ar      1 <0>        -0.0040
      8 C8         -2.4872   -0.0812    0.0206 C.ar      1 <0>        -0.0732
      9 C9         -3.6826   -0.7985    0.0288 C.ar      1 <0>         0.0129
     10 C10        -3.6554   -2.1951    0.0268 C.ar      1 <0>        -0.1096
     11 C11        -2.4457   -2.8643    0.0174 C.ar      1 <0>         0.1107
     12 C12        -1.2575   -2.1554    0.0030 C.ar      1 <0>        -0.1220
     13 F1         -2.4238   -4.2151    0.0164 F         1 <0>        -0.1291
     14 C13        -4.9356   -0.1051    0.0395 C.1       1 <0>         0.2486
     15 N1         -5.9295    0.4449    0.0481 N.1       1 <0>        -0.3957
     16 N2          3.7380   -0.3341   -0.0355 N.pl3     1 <0>        -0.4857
     17 C14         4.4673    0.8184   -0.0363 C.2       1 <0>         0.4619
     18 N3          3.6674    1.8530   -0.0230 N.2       1 <0>        -0.4886
     19 O1          5.8185    0.8820   -0.0484 O.3       1 <0>        -0.4398
     20 C15         4.2700   -1.6990   -0.0479 C.3       1 <0>         0.1409
     21 C16         5.1391   -1.9190    1.1919 C.3       1 <0>        -0.1317
     22 C17         5.6947   -3.3445    1.1789 C.3       1 <0>        -0.1159
     23 C18         6.5399   -3.5510   -0.0796 C.3       1 <0>        -0.1247
     24 C19         5.6708   -3.3310   -1.3194 C.3       1 <0>        -0.1151
     25 C20         5.1152   -1.9055   -1.3064 C.3       1 <0>        -0.1304
     26 H1         -0.9617    1.9162    0.0261 H         1 <0>         0.1373
     27 H2          1.1240    3.1819    0.0081 H         1 <0>         0.1375
     28 H3          1.2296   -1.7667   -0.0188 H         1 <0>         0.1281
     29 H4         -2.5032    0.9987    0.0224 H         1 <0>         0.1469
     30 H5         -4.5803   -2.7527    0.0331 H         1 <0>         0.1486
     31 H6         -0.3154   -2.6833   -0.0096 H         1 <0>         0.1451
     32 H7          6.2031    0.9050   -0.9353 H         1 <0>         0.4081
     33 H8          3.4445   -2.4108   -0.0439 H         1 <0>         0.1003
     34 H9          5.9646   -1.2072    1.1878 H         1 <0>         0.0818
     35 H10         4.5370   -1.7719    2.0885 H         1 <0>         0.0694
     36 H11         6.3139   -3.5012    2.0622 H         1 <0>         0.0724
     37 H12         4.8692   -4.0562    1.1830 H         1 <0>         0.0658
     38 H13         7.3655   -2.8392   -0.0837 H         1 <0>         0.0662
     39 H14         6.9357   -4.5665   -0.0888 H         1 <0>         0.0690
     40 H15         6.2730   -3.4781   -2.2160 H         1 <0>         0.0727
     41 H16         4.8453   -4.0428   -1.3154 H         1 <0>         0.0674
     42 H17         4.4961   -1.7488   -2.1897 H         1 <0>         0.0713
     43 H18         5.9408   -1.1938   -1.3105 H         1 <0>         0.0701
@<TRIPOS>BOND
     1    1    6 ar
     2    1    2 ar
     3    1   26 1
     4    2    3 ar
     5    2   27 1
     6    3   18 1
     7    3    4 ar
     8    4    5 ar
     9    4   16 1
    10    5    6 ar
    11    5   28 1
    12    6    7 1
    13    7   12 ar
    14    7    8 ar
    15    8    9 ar
    16    8   29 1
    17    9   10 ar
    18    9   14 1
    19   10   11 ar
    20   10   30 1
    21   11   12 ar
    22   11   13 1
    23   12   31 1
    24   14   15 3
    25   16   17 1
    26   16   20 1
    27   17   18 2
    28   17   19 1
    29   19   32 1
    30   20   25 1
    31   20   21 1
    32   20   33 1
    33   21   22 1
    34   21   34 1
    35   21   35 1
    36   22   23 1
    37   22   36 1
    38   22   37 1
    39   23   24 1
    40   23   38 1
    41   23   39 1
    42   24   25 1
    43   24   40 1
    44   24   41 1
    45   25   42 1
    46   25   43 1
@<TRIPOS>MOLECULE
CHEMBL25556
   33    35     0     0     0
SMALL
USER_CHARGES

@<TRIPOS>ATOM
      1 C1         -0.0187    1.5258    0.0104 C.3       1 <0>        -0.1433
      2 C2          0.0021   -0.0041    0.0020 C.3       1 <0>         0.1489
      3 C3         -1.4116   -0.5279    0.0242 C.ar      1 <0>        -0.1445
      4 C4         -2.4365    0.1818   -0.5587 C.ar      1 <0>        -0.0576
      5 C5         -3.7355   -0.3251   -0.5266 C.ar      1 <0>        -0.0542
      6 C6         -3.9915   -1.5468    0.0945 C.ar      1 <0>        -0.0680
      7 C7         -2.9606   -2.2540    0.6777 C.ar      1 <0>        -0.1274
      8 C8         -1.6699   -1.7467    0.6453 C.ar      1 <0>         0.1435
      9 N1         -0.6078   -2.4422    1.2336 N.pl3     1 <0>        -0.6232
     10 C9          0.5690   -1.7848    1.4675 C.2       1 <0>         0.4740
     11 O1          0.6935   -0.4796    1.1601 O.3       1 <0>        -0.2772
     12 S1          1.8514   -2.6012    2.1342 S.3       1 <0>        -0.4291
     13 C10        -4.8446    0.4357   -1.1528 C.ar      1 <0>        -0.0881
     14 C11        -6.1513   -0.0592   -1.1220 C.ar      1 <0>        -0.0395
     15 C12        -7.1511    0.6889   -1.7209 C.ar      1 <0>        -0.1416
     16 C13        -6.8268    1.8913   -2.3250 C.ar      1 <0>         0.1345
     17 N2         -5.5839    2.3320   -2.3377 N.ar      1 <0>        -0.4660
     18 C14        -4.6012    1.6578   -1.7760 C.ar      1 <0>         0.1233
     19 Br1        -8.9394    0.0742   -1.7141 Br        1 <0>        -0.0227
     20 C15         0.7138   -0.4994   -1.2585 C.3       1 <0>        -0.1707
     21 H1          1.0039    1.9031    0.0027 H         1 <0>         0.0832
     22 H2         -0.5459    1.8868   -0.8726 H         1 <0>         0.0887
     23 H3         -0.5289    1.8773    0.9072 H         1 <0>         0.0750
     24 H4         -2.2356    1.1277   -1.0397 H         1 <0>         0.1432
     25 H5         -4.9972   -1.9397    0.1188 H         1 <0>         0.1396
     26 H6         -3.1582   -3.2005    1.1590 H         1 <0>         0.1429
     27 H7         -6.3756   -1.0012   -0.6437 H         1 <0>         0.1487
     28 H8         -7.6035    2.4775   -2.7935 H         1 <0>         0.1693
     29 H9         -3.5968    2.0541   -1.8027 H         1 <0>         0.1652
     30 H10         1.7366   -0.1228   -1.2700 H         1 <0>         0.0842
     31 H11         0.7279   -1.5893   -1.2632 H         1 <0>         0.0610
     32 H12         0.1840   -0.1391   -2.1403 H         1 <0>         0.0864
     33 H13        -0.7047   -3.3773    1.4726 H         1 <0>         0.4414
@<TRIPOS>BOND
     1    1    2 1
     2    1   21 1
     3    1   22 1
     4    1   23 1
     5    2   11 1
     6    2    3 1
     7    2   20 1
     8    3    8 ar
     9    3    4 ar
    10    4    5 ar
    11    4   24 1
    12    5    6 ar
    13    5   13 1
    14    6    7 ar
    15    6   25 1
    16    7    8 ar
    17    7   26 1
    18    8    9 1
    19    9   10 2
    20    9   33 1
    21   10   11 1
    22   10   12 1
    23   13   18 ar
    24   13   14 ar
    25   14   15 ar
    26   14   27 1
    27   15   16 ar
    28   15   19 1
    29   16   17 ar
    30   16   28 1
    31   17   18 ar
    32   18   29 1
    33   20   30 1
    34   20   31 1
    35   20   32 1
@<TRIPOS>MOLECULE
CHEMBL167405
   39    41     0     0     0
SMALL
USER_CHARGES

@<TRIPOS>ATOM
      1 C1         -1.9611    0.5760    0.3865 C.3       1 <0>        -0.0979
      2 C2         -0.8390   -0.4053    0.1649 C.2       1 <0>        -0.1335
      3 C3         -0.7198   -1.0700   -1.0241 C.2       1 <0>        -0.0659
      4 C4          0.3287   -1.9645   -1.1844 C.2       1 <0>        -0.1381
      5 S1          1.1602   -1.8548    0.3915 S.3       1 <0>         0.1443
      6 C5          0.0941   -0.6464    1.1597 C.2       1 <0>        -0.0681
      7 C6          0.1830   -0.0566    2.5107 C.ar      1 <0>        -0.0760
      8 C7          0.0560    1.3243    2.6805 C.ar      1 <0>        -0.0372
      9 C8          0.1407    1.8703    3.9427 C.ar      1 <0>        -0.1862
     10 C9          0.3510    1.0480    5.0432 C.ar      1 <0>         0.2354
     11 C10         0.4754   -0.3274    4.8811 C.ar      1 <0>        -0.1786
     12 C11         0.3883   -0.8793    3.6201 C.ar      1 <0>        -0.0391
     13 C12         0.6939   -1.2215    6.0737 C.3       1 <0>         0.1621
     14 O1          1.1706   -0.4575    7.1823 O.3       1 <0>        -0.3714
     15 C13         0.3671    0.6918    7.4775 C.3       1 <0>         0.3078
     16 N1          0.4411    1.6029    6.3246 N.pl3     1 <0>        -0.7571
     17 C14         0.9051    1.3927    8.7266 C.3       1 <0>        -0.1565
     18 C15        -0.6274   -1.8938    6.4521 C.3       1 <0>        -0.1728
     19 C16         1.7229   -2.2969    5.7193 C.3       1 <0>        -0.1378
     20 C17         0.6590   -2.7691   -2.3220 C.1       1 <0>         0.2930
     21 N2          0.9210   -3.4074   -3.2245 N.1       1 <0>        -0.3969
     22 H1         -1.6131    1.5835    0.1584 H         1 <0>         0.0713
     23 H2         -2.7979    0.3244   -0.2651 H         1 <0>         0.0682
     24 H3         -2.2840    0.5299    1.4266 H         1 <0>         0.0716
     25 H4         -1.4278   -0.9025   -1.8222 H         1 <0>         0.1460
     26 H5         -0.1079    1.9622    1.8246 H         1 <0>         0.1307
     27 H6          0.0440    2.9375    4.0768 H         1 <0>         0.1297
     28 H7          0.4830   -1.9473    3.4903 H         1 <0>         0.1291
     29 H8         -0.6666    0.3871    7.6410 H         1 <0>         0.0711
     30 H9          0.5493    2.5588    6.4489 H         1 <0>         0.4083
     31 H10         1.9340    1.7072    8.5520 H         1 <0>         0.0722
     32 H11         0.2906    2.2657    8.9465 H         1 <0>         0.0783
     33 H12         0.8740    0.7044    9.5712 H         1 <0>         0.0823
     34 H13        -0.9863   -2.4882    5.6119 H         1 <0>         0.0722
     35 H14        -0.4715   -2.5413    7.3150 H         1 <0>         0.0703
     36 H15        -1.3656   -1.1308    6.6991 H         1 <0>         0.0580
     37 H16         2.6641   -1.8220    5.4425 H         1 <0>         0.0668
     38 H17         1.8825   -2.9451    6.5809 H         1 <0>         0.0695
     39 H18         1.3551   -2.8898    4.8818 H         1 <0>         0.0753
@<TRIPOS>BOND
     1    1    2 1
     2    1   22 1
     3    1   23 1
     4    1   24 1
     5    2    6 2
     6    2    3 1
     7    3    4 2
     8    3   25 1
     9    4    5 1
    10    4   20 1
    11    5    6 1
    12    6    7 1
    13    7   12 ar
    14    7    8 ar
    15    8    9 ar
    16    8   26 1
    17    9   10 ar
    18    9   27 1
    19   10   16 1
    20   10   11 ar
    21   11   12 ar
    22   11   13 1
    23   12   28 1
    24   13   14 1
    25   13   18 1
    26   13   19 1
    27   14   15 1
    28   15   16 1
    29   15   17 1
    30   15   29 1
    31   16   30 1
    32   17   31 1
    33   17   32 1
    34   17   33 1
    35   18   34 1
    36   18   35 1
    37   18   36 1
    38   19   37 1
    39   19   38 1
    40   19   39 1
    41   20   21 3
@<TRIPOS>MOLECULE
CHEMBL167405__1
   39    41     0     0     0
SMALL
USER_CHARGES

@<TRIPOS>ATOM
      1 C1         -1.9602    0.5772    0.3859 C.3       1 <0>        -0.0979
      2 C2         -0.8386   -0.4047    0.1646 C.2       1 <0>        -0.1328
      3 C3         -0.7195   -1.0696   -1.0243 C.2       1 <0>        -0.0661
      4 C4          0.3285   -1.9647   -1.1843 C.2       1 <0>        -0.1375
      5 S1          1.1597   -1.8555    0.3918 S.3       1 <0>         0.1442
      6 C5          0.0941   -0.6464    1.1597 C.2       1 <0>        -0.0688
      7 C6          0.1830   -0.0566    2.5108 C.ar      1 <0>        -0.0768
      8 C7          0.0650    1.3246    2.6801 C.ar      1 <0>        -0.0362
      9 C8          0.1407    1.8650    3.9443 C.ar      1 <0>        -0.1873
     10 C9          0.3336    1.0387    5.0469 C.ar      1 <0>         0.2352
     11 C10         0.4763   -0.3329    4.8846 C.ar      1 <0>        -0.1789
     12 C11         0.3884   -0.8803    3.6199 C.ar      1 <0>        -0.0367
     13 C12         0.7515   -1.2267    6.0634 C.3       1 <0>         0.1774
     14 O1          0.9772   -0.5102    7.2591 O.3       1 <0>        -0.3752
     15 C13         0.3599    0.7355    7.5046 C.3       1 <0>         0.3285
     16 N1          0.3923    1.6002    6.3229 N.pl3     1 <0>        -0.7587
     17 C14        -1.0827    0.5684    7.9916 C.3       1 <0>        -0.1947
     18 C15        -0.4156   -2.2055    6.2387 C.3       1 <0>        -0.1686
     19 C16         2.0154   -2.0528    5.7545 C.3       1 <0>        -0.1419
     20 C17         0.6586   -2.7696   -2.3218 C.1       1 <0>         0.2929
     21 N2          0.9205   -3.4081   -3.2241 N.1       1 <0>        -0.3966
     22 H1         -1.6115    1.5845    0.1579 H         1 <0>         0.0713
     23 H2         -2.7969    0.3261   -0.2659 H         1 <0>         0.0683
     24 H3         -2.2833    0.5314    1.4259 H         1 <0>         0.0714
     25 H4         -1.4272   -0.9017   -1.8226 H         1 <0>         0.1461
     26 H5         -0.0853    1.9652    1.8238 H         1 <0>         0.1310
     27 H6          0.0500    2.9325    4.0822 H         1 <0>         0.1298
     28 H7          0.4713   -1.9476    3.4757 H         1 <0>         0.1280
     29 H8          0.9199    1.2500    8.3109 H         1 <0>         0.1092
     30 H9          0.4546    2.5702    6.4251 H         1 <0>         0.4113
     31 H10        -1.0892   -0.0056    8.9182 H         1 <0>         0.0758
     32 H11        -1.5223    1.5499    8.1691 H         1 <0>         0.0709
     33 H12        -1.6632    0.0419    7.2340 H         1 <0>         0.0618
     34 H13        -0.5209   -2.8105    5.3382 H         1 <0>         0.0695
     35 H14        -0.2200   -2.8551    7.0920 H         1 <0>         0.0688
     36 H15        -1.3356   -1.6469    6.4108 H         1 <0>         0.0588
     37 H16         2.8573   -1.3806    5.5888 H         1 <0>         0.0629
     38 H17         2.2349   -2.7094    6.5964 H         1 <0>         0.0687
     39 H18         1.8478   -2.6526    4.8600 H         1 <0>         0.0731
@<TRIPOS>BOND
     1    1    2 1
     2    1   22 1
     3    1   23 1
     4    1   24 1
     5    2    6 2
     6    2    3 1
     7    3    4 2
     8    3   25 1
     9    4    5 1
    10    4   20 1
    11    5    6 1
    12    6    7 1
    13    7   12 ar
    14    7    8 ar
    15    8    9 ar
    16    8   26 1
    17    9   10 ar
    18    9   27 1
    19   10   16 1
    20   10   11 ar
    21   11   12 ar
    22   11   13 1
    23   12   28 1
    24   13   14 1
    25   13   18 1
    26   13   19 1
    27   14   15 1
    28   15   16 1
    29   15   17 1
    30   15   29 1
    31   16   30 1
    32   17   31 1
    33   17   32 1
    34   17   33 1
    35   18   34 1
    36   18   35 1
    37   18   36 1
    38   19   37 1
    39   19   38 1
    40   19   39 1
    41   20   21 3
@<TRIPOS>MOLECULE
CHEMBL391361
   39    41     0     0     0
SMALL
USER_CHARGES

@<TRIPOS>ATOM
      1 C1         -0.0777    1.4403    0.0610 C.3       1 <0>        -0.1694
      2 C2         -0.1017   -0.0890    0.0242 C.3       1 <0>         0.1483
      3 C3          0.6396   -0.5767   -1.1949 C.ar      1 <0>        -0.1057
      4 C4         -0.0114   -0.7589   -2.3953 C.ar      1 <0>        -0.1219
      5 C5          0.6972   -1.2078   -3.5037 C.ar      1 <0>         0.1826
      6 C6          2.0572   -1.4720   -3.4003 C.ar      1 <0>        -0.1342
      7 C7          2.7086   -1.2889   -2.1958 C.ar      1 <0>        -0.0897
      8 C8          2.0011   -0.8420   -1.0912 C.ar      1 <0>         0.0919
      9 N1          2.6341   -0.6506    0.1451 N.pl3     1 <0>        -0.4966
     10 C9          1.8818   -0.5217    1.2577 C.2       1 <0>         0.4918
     11 S1          2.6418   -0.2469    2.7670 S.2       1 <0>        -0.5086
     12 O1          0.5397   -0.6065    1.1934 O.3       1 <0>        -0.2780
     13 C10         4.0955   -0.5908    0.2278 C.3       1 <0>         0.0641
     14 N2          0.0399   -1.3944   -4.7248 N.pl3     1 <0>        -0.6808
     15 C11         0.5488   -2.2981   -5.6613 C.ar      1 <0>         0.1905
     16 C12         1.2102   -3.4432   -5.2354 C.ar      1 <0>        -0.1578
     17 C13         1.7121   -4.3343   -6.1633 C.ar      1 <0>        -0.0566
     18 C14         1.5571   -4.0875   -7.5160 C.ar      1 <0>        -0.1205
     19 C15         0.8988   -2.9479   -7.9432 C.ar      1 <0>        -0.0556
     20 C16         0.3893   -2.0561   -7.0200 C.ar      1 <0>        -0.1552
     21 Br1         2.2470   -5.3097   -8.7833 Br        1 <0>        -0.0481
     22 C17        -1.5507   -0.5779   -0.0243 C.3       1 <0>        -0.1403
     23 H1          0.9553    1.7869    0.0911 H         1 <0>         0.0608
     24 H2         -0.5668    1.8329   -0.8305 H         1 <0>         0.0851
     25 H3         -0.6046    1.7908    0.9485 H         1 <0>         0.0839
     26 H4         -1.0688   -0.5540   -2.4747 H         1 <0>         0.1422
     27 H5          2.6059   -1.8205   -4.2627 H         1 <0>         0.1413
     28 H6          3.7660   -1.4935   -2.1154 H         1 <0>         0.1428
     29 H7          4.4243    0.4415    0.1080 H         1 <0>         0.0850
     30 H8          4.4202   -0.9652    1.1986 H         1 <0>         0.1157
     31 H9          4.5295   -1.2042   -0.5618 H         1 <0>         0.0901
     32 H10        -0.7690   -0.8964   -4.9212 H         1 <0>         0.4150
     33 H11         1.3321   -3.6360   -4.1798 H         1 <0>         0.1349
     34 H12         2.2264   -5.2247   -5.8329 H         1 <0>         0.1367
     35 H13         0.7794   -2.7579   -8.9996 H         1 <0>         0.1373
     36 H14        -0.1286   -1.1692   -7.3540 H         1 <0>         0.1350
     37 H15        -2.0365   -0.1862   -0.9180 H         1 <0>         0.0877
     38 H16        -1.5659   -1.6674   -0.0505 H         1 <0>         0.0742
     39 H17        -2.0820   -0.2282    0.8609 H         1 <0>         0.0820
@<TRIPOS>BOND
     1    1    2 1
     2    1   23 1
     3    1   24 1
     4    1   25 1
     5    2   12 1
     6    2    3 1
     7    2   22 1
     8    3    8 ar
     9    3    4 ar
    10    4    5 ar
    11    4   26 1
    12    5    6 ar
    13    5   14 1
    14    6    7 ar
    15    6   27 1
    16    7    8 ar
    17    7   28 1
    18    8    9 1
    19    9   10 1
    20    9   13 1
    21   10   11 2
    22   10   12 1
    23   13   29 1
    24   13   30 1
    25   13   31 1
    26   14   15 1
    27   14   32 1
    28   15   20 ar
    29   15   16 ar
    30   16   17 ar
    31   16   33 1
    32   17   18 ar
    33   17   34 1
    34   18   19 ar
    35   18   21 1
    36   19   20 ar
    37   19   35 1
    38   20   36 1
    39   22   37 1
    40   22   38 1
    41   22   39 1
@<TRIPOS>MOLECULE
CHEMBL561460
   70    74     0     0     0
SMALL
USER_CHARGES

@<TRIPOS>ATOM
      1 C1         -0.4027    3.2238    0.0947 C.3       1 <0>        -0.1259
      2 C2         -0.4439    1.7508    0.4104 C.2       1 <0>        -0.1567
      3 C3         -0.3621    1.3448    1.6533 C.2       1 <0>        -0.1815
      4 C4         -0.5787    0.7483   -0.6997 C.3       1 <0>         0.1766
      5 C5         -1.7587    1.1499   -1.6248 C.3       1 <0>        -0.1529
      6 C6         -1.2742    0.6584   -3.0205 C.3       1 <0>        -0.1163
      7 C7          0.2100    1.1200   -2.9764 C.3       1 <0>        -0.0699
      8 H1          0.2104    2.2258   -3.0235 H         1 <0>         0.0694
      9 C8          0.6787    0.7092   -1.6030 C.3       1 <0>        -0.0652
     10 C9          1.8253    1.4727   -1.0183 C.3       1 <0>         0.0786
     11 O1          3.0464    1.3838   -1.7129 O.3       1 <0>        -0.3498
     12 C10         2.9766    1.7456   -3.0751 C.3       1 <0>         0.1729
     13 H2          2.2029    2.5486   -3.1199 H         1 <0>         0.0534
     14 C11         2.4517    0.6524   -3.9385 C.2       1 <0>        -0.0842
     15 C12         3.2346   -0.3157   -4.4311 C.2       1 <0>        -0.0844
     16 C13         4.6802   -0.4754   -4.0160 C.3       1 <0>        -0.0764
     17 C14         5.0372   -1.9577   -3.8635 C.3       1 <0>        -0.1675
     18 C15         4.5857   -2.7276   -5.0737 C.2       1 <0>         0.3871
     19 O2          5.2766   -3.6243   -5.5083 O.2       1 <0>        -0.4699
     20 C16         3.3711   -2.4147   -5.7065 C.2       1 <0>        -0.2450
     21 C17         2.6903   -1.2959   -5.3734 C.2       1 <0>         0.0167
     22 C18         1.3257   -1.0379   -5.9763 C.3       1 <0>        -0.0994
     23 C19         0.4197   -0.6467   -4.7946 C.3       1 <0>        -0.1049
     24 C20         0.9706    0.6059   -4.1676 C.3       1 <0>        -0.0432
     25 H3          0.8197    1.3816   -4.9396 H         1 <0>         0.0694
     26 C21         4.2461    2.3748   -3.5882 C.ar      1 <0>        -0.1374
     27 C22         4.2123    3.1771   -4.7141 C.ar      1 <0>        -0.0563
     28 C23         5.3739    3.7554   -5.1870 C.ar      1 <0>        -0.1991
     29 C24         6.5772    3.5303   -4.5304 C.ar      1 <0>         0.2198
     30 C25         6.6076    2.7238   -3.3998 C.ar      1 <0>        -0.1990
     31 C26         5.4413    2.1532   -2.9289 C.ar      1 <0>        -0.0440
     32 N1          7.7539    4.1131   -5.0062 N.pl3     1 <0>        -0.6382
     33 C27         7.7468    4.8484   -6.2734 C.3       1 <0>         0.0885
     34 C28         8.9953    3.9893   -4.2382 C.3       1 <0>         0.0929
     35 C29         1.0992   -0.7685   -1.6338 C.3       1 <0>        -0.1295
     36 O3         -0.8149   -0.5561   -0.1598 O.3       1 <0>        -0.5433
     37 H4          0.6345    3.5525    0.0295 H         1 <0>         0.0725
     38 H5         -0.9019    3.4054   -0.8571 H         1 <0>         0.0666
     39 H6         -0.9108    3.7788    0.8833 H         1 <0>         0.0662
     40 H7         -0.2651    2.0657    2.4516 H         1 <0>         0.1000
     41 H8         -0.3917    0.2892    1.8796 H         1 <0>         0.1071
     42 H9         -2.6707    0.6370   -1.3313 H         1 <0>         0.0745
     43 H10        -1.8952    2.2287   -1.6244 H         1 <0>         0.0814
     44 H11        -1.3535   -0.4198   -3.1037 H         1 <0>         0.0816
     45 H12        -1.8120    1.1667   -3.8178 H         1 <0>         0.0722
     46 H13         1.5671    2.5356   -0.9720 H         1 <0>         0.0491
     47 H14         2.0150    1.1158   -0.0000 H         1 <0>         0.0978
     48 H15         5.3299   -0.0223   -4.7632 H         1 <0>         0.0782
     49 H16         4.8447   -0.0039   -3.0436 H         1 <0>         0.0955
     50 H17         6.1209   -2.0532   -3.7644 H         1 <0>         0.0935
     51 H18         4.5597   -2.3605   -2.9718 H         1 <0>         0.0994
     52 H19         2.9804   -3.0775   -6.4659 H         1 <0>         0.1355
     53 H20         1.3799   -0.2234   -6.6947 H         1 <0>         0.0886
     54 H21         0.9503   -1.9449   -6.4473 H         1 <0>         0.0859
     55 H22        -0.5910   -0.4641   -5.1693 H         1 <0>         0.0805
     56 H23         0.3897   -1.4678   -4.0826 H         1 <0>         0.0756
     57 H24         3.2765    3.3515   -5.2243 H         1 <0>         0.1181
     58 H25         5.3469    4.3816   -6.0665 H         1 <0>         0.1241
     59 H26         7.5415    2.5465   -2.8872 H         1 <0>         0.1225
     60 H27         5.4635    1.5297   -2.0474 H         1 <0>         0.1291
     61 H28         6.7679    4.7530   -6.7433 H         1 <0>         0.0774
     62 H29         7.9579    5.9008   -6.0840 H         1 <0>         0.0526
     63 H30         8.5092    4.4383   -6.9356 H         1 <0>         0.0566
     64 H31         9.5286    3.0919   -4.5518 H         1 <0>         0.0489
     65 H32         9.6208    4.8642   -4.4151 H         1 <0>         0.0666
     66 H33         8.7600    3.9196   -3.1762 H         1 <0>         0.0690
     67 H34         0.2787   -1.3717   -2.0224 H         1 <0>         0.0589
     68 H35         1.9717   -0.8847   -2.2767 H         1 <0>         0.0589
     69 H36         1.3455   -1.0973   -0.6242 H         1 <0>         0.0579
     70 H37        -1.6127   -0.6186    0.3832 H         1 <0>         0.3726
@<TRIPOS>BOND
     1    1    2 1
     2    1   37 1
     3    1   38 1
     4    1   39 1
     5    2    3 2
     6    2    4 1
     7    3   40 1
     8    3   41 1
     9    4    9 1
    10    4    5 1
    11    4   36 1
    12    5    6 1
    13    5   42 1
    14    5   43 1
    15    6    7 1
    16    6   44 1
    17    6   45 1
    18    7    8 1
    19    7   24 1
    20    7    9 1
    21    9   10 1
    22    9   35 1
    23   10   11 1
    24   10   46 1
    25   10   47 1
    26   11   12 1
    27   12   13 1
    28   12   14 1
    29   12   26 1
    30   14   24 1
    31   14   15 2
    32   15   21 1
    33   15   16 1
    34   16   17 1
    35   16   48 1
    36   16   49 1
    37   17   18 1
    38   17   50 1
    39   17   51 1
    40   18   19 2
    41   18   20 1
    42   20   21 2
    43   20   52 1
    44   21   22 1
    45   22   23 1
    46   22   53 1
    47   22   54 1
    48   23   24 1
    49   23   55 1
    50   23   56 1
    51   24   25 1
    52   26   31 ar
    53   26   27 ar
    54   27   28 ar
    55   27   57 1
    56   28   29 ar
    57   28   58 1
    58   29   30 ar
    59   29   32 1
    60   30   31 ar
    61   30   59 1
    62   31   60 1
    63   32   33 1
    64   32   34 1
    65   33   61 1
    66   33   62 1
    67   33   63 1
    68   34   64 1
    69   34   65 1
    70   34   66 1
    71   35   67 1
    72   35   68 1
    73   35   69 1
    74   36   70 1
@<TRIPOS>MOLECULE
CHEMBL195962
   69    72     0     0     0
SMALL
USER_CHARGES

@<TRIPOS>ATOM
      1 C1         -2.3456   -6.0627   -0.9510 C.3       1 <0>        -0.1033
      2 C2         -3.2950   -6.8927   -0.1261 C.2       1 <0>         0.1566
      3 C3         -4.4528   -6.2664    0.5300 C.ar      1 <0>        -0.0554
      4 C4         -4.8871   -4.9847    0.2269 C.ar      1 <0>        -0.1074
      5 C5         -5.9859   -4.4626    0.8971 C.ar      1 <0>         0.1799
      6 C6         -6.6499   -5.2132    1.8664 C.ar      1 <0>        -0.1057
      7 C7         -6.2302   -6.4897    2.1754 C.ar      1 <0>        -0.0264
      8 C8         -5.1349   -7.0268    1.5110 C.ar      1 <0>        -0.1649
      9 C9         -4.6257   -8.3849    1.7684 C.2       1 <0>         0.4860
     10 O1         -4.7898   -8.9325    2.8421 O.2       1 <0>        -0.4341
     11 O2         -3.9681   -8.9952    0.7574 O.3       1 <0>        -0.1622
     12 N1         -3.1034   -8.1677    0.0089 N.2       1 <0>        -0.2546
     13 N2         -6.4292   -3.1741    0.5978 N.am      1 <0>        -0.6793
     14 C10        -7.7479   -2.8962    0.6066 C.2       1 <0>         0.5030
     15 O3         -8.5437   -3.7422    0.9557 O.2       1 <0>        -0.4998
     16 C11        -8.2338   -1.5341    0.1827 C.3       1 <0>         0.1362
     17 C12        -8.9231   -0.8481    1.3639 C.3       1 <0>        -0.1022
     18 C13        -9.5510    0.4660    0.8949 C.3       1 <0>        -0.0833
     19 C14        -8.4455    1.4468    0.4991 C.3       1 <0>        -0.1181
     20 C15        -9.0734    2.7609    0.0302 C.3       1 <0>        -0.1209
     21 C16        -9.9062    3.3616    1.1644 C.3       1 <0>        -0.1215
     22 C17       -11.0117    2.3807    1.5602 C.3       1 <0>        -0.1191
     23 C18       -10.3838    1.0667    2.0291 C.3       1 <0>        -0.1163
     24 C19        -9.2274   -1.6833   -0.9711 C.3       1 <0>        -0.1368
     25 C20        -8.4703   -2.0302   -2.2546 C.3       1 <0>        -0.0149
     26 C21        -7.7111   -0.7968   -2.7480 C.3       1 <0>        -0.1521
     27 C22        -7.4784   -3.1603   -1.9720 C.3       1 <0>        -0.1612
     28 C23        -9.4492   -2.4735   -3.3111 C.ar      1 <0>        -0.0650
     29 C24       -10.8015   -2.5081   -3.0295 C.ar      1 <0>        -0.1432
     30 C25       -11.7010   -2.9148   -3.9999 C.ar      1 <0>         0.0969
     31 C26       -11.2471   -3.2879   -5.2538 C.ar      1 <0>        -0.1417
     32 C27        -9.8958   -3.2542   -5.5380 C.ar      1 <0>        -0.1122
     33 C28        -8.9937   -2.8414   -4.5683 C.ar      1 <0>         0.0996
     34 O4         -7.6640   -2.8024   -4.8485 O.3       1 <0>        -0.4860
     35 F1        -13.0230   -2.9482   -3.7232 F         1 <0>        -0.1360
     36 O5         -7.1226   -0.7438   -0.2448 O.3       1 <0>        -0.5317
     37 H1         -1.5612   -6.7023   -1.3556 H         1 <0>         0.0943
     38 H2         -2.8906   -5.5938   -1.7703 H         1 <0>         0.0992
     39 H3         -1.8982   -5.2915   -0.3239 H         1 <0>         0.0987
     40 H4         -4.3764   -4.3987   -0.5228 H         1 <0>         0.1501
     41 H5         -7.5006   -4.7907    2.3803 H         1 <0>         0.1553
     42 H6         -6.7482   -7.0666    2.9273 H         1 <0>         0.1504
     43 H7         -5.7883   -2.4783    0.3834 H         1 <0>         0.4151
     44 H8         -9.7005   -1.5012    1.7601 H         1 <0>         0.0876
     45 H9         -8.1893   -0.6423    2.1432 H         1 <0>         0.0776
     46 H10       -10.1927    0.2754    0.0346 H         1 <0>         0.0764
     47 H11        -7.8038    1.6375    1.3594 H         1 <0>         0.0566
     48 H12        -7.8522    1.0189   -0.3089 H         1 <0>         0.0950
     49 H13        -8.2858    3.4597   -0.2518 H         1 <0>         0.0591
     50 H14        -9.7151    2.5702   -0.8301 H         1 <0>         0.0579
     51 H15        -9.2645    3.5522    2.0247 H         1 <0>         0.0598
     52 H16       -10.3535    4.2977    0.8303 H         1 <0>         0.0582
     53 H17       -11.6050    2.8087    2.3682 H         1 <0>         0.0605
     54 H18       -11.6534    2.1901    0.6999 H         1 <0>         0.0606
     55 H19       -11.1714    0.3679    2.3111 H         1 <0>         0.0607
     56 H20        -9.7421    1.2573    2.8894 H         1 <0>         0.0619
     57 H21        -9.9352   -2.4795   -0.7404 H         1 <0>         0.0889
     58 H22        -9.7670   -0.7464   -1.1094 H         1 <0>         0.1006
     59 H23        -6.8734   -0.5947   -2.0805 H         1 <0>         0.0781
     60 H24        -7.3372   -0.9793   -3.7554 H         1 <0>         0.0725
     61 H25        -8.3820    0.0622   -2.7595 H         1 <0>         0.0575
     62 H26        -7.9342   -3.8831   -1.2953 H         1 <0>         0.0654
     63 H27        -7.2143   -3.6543   -2.9071 H         1 <0>         0.0654
     64 H28        -6.5799   -2.7486   -1.5122 H         1 <0>         0.0587
     65 H29       -11.1568   -2.2180   -2.0517 H         1 <0>         0.1434
     66 H30       -11.9499   -3.6057   -6.0098 H         1 <0>         0.1404
     67 H31        -9.5420   -3.5456   -6.5160 H         1 <0>         0.1402
     68 H32        -7.1970   -3.6268   -4.6551 H         1 <0>         0.3856
     69 H33        -6.4289   -1.2490   -0.6905 H         1 <0>         0.3657
@<TRIPOS>BOND
     1    1    2 1
     2    1   37 1
     3    1   38 1
     4    1   39 1
     5    2   12 2
     6    2    3 1
     7    3    8 ar
     8    3    4 ar
     9    4    5 ar
    10    4   40 1
    11    5    6 ar
    12    5   13 1
    13    6    7 ar
    14    6   41 1
    15    7    8 ar
    16    7   42 1
    17    8    9 1
    18    9   10 2
    19    9   11 1
    20   11   12 1
    21   13   14 am
    22   13   43 1
    23   14   15 2
    24   14   16 1
    25   16   17 1
    26   16   24 1
    27   16   36 1
    28   17   18 1
    29   17   44 1
    30   17   45 1
    31   18   23 1
    32   18   19 1
    33   18   46 1
    34   19   20 1
    35   19   47 1
    36   19   48 1
    37   20   21 1
    38   20   49 1
    39   20   50 1
    40   21   22 1
    41   21   51 1
    42   21   52 1
    43   22   23 1
    44   22   53 1
    45   22   54 1
    46   23   55 1
    47   23   56 1
    48   24   25 1
    49   24   57 1
    50   24   58 1
    51   25   26 1
    52   25   27 1
    53   25   28 1
    54   26   59 1
    55   26   60 1
    56   26   61 1
    57   27   62 1
    58   27   63 1
    59   27   64 1
    60   28   33 ar
    61   28   29 ar
    62   29   30 ar
    63   29   65 1
    64   30   31 ar
    65   30   35 1
    66   31   32 ar
    67   31   66 1
    68   32   33 ar
    69   32   67 1
    70   33   34 1
    71   34   68 1
    72   36   69 1
@<TRIPOS>MOLECULE
CHEMBL195962__1
   69    72     0     0     0
SMALL
USER_CHARGES

@<TRIPOS>ATOM
      1 C1         -2.5133   -4.4365   -2.9676 C.3       1 <0>        -0.1040
      2 C2         -1.7569   -4.3529   -1.6669 C.2       1 <0>         0.1601
      3 C3         -2.1018   -3.3273   -0.6707 C.ar      1 <0>        -0.0544
      4 C4         -3.2673   -2.5785   -0.7341 C.ar      1 <0>        -0.0887
      5 C5         -3.5163   -1.6237    0.2432 C.ar      1 <0>         0.1812
      6 C6         -2.6080   -1.4141    1.2800 C.ar      1 <0>        -0.1341
      7 C7         -1.4468   -2.1535    1.3565 C.ar      1 <0>        -0.0232
      8 C8         -1.1856   -3.1146    0.3882 C.ar      1 <0>        -0.1707
      9 C9          0.0225   -3.9575    0.3981 C.2       1 <0>         0.4870
     10 O1          1.0535   -3.5847    0.9247 O.2       1 <0>        -0.4372
     11 O2         -0.0669   -5.1643   -0.2043 O.3       1 <0>        -0.1631
     12 N1         -0.7985   -5.1875   -1.4113 N.2       1 <0>        -0.2559
     13 N2         -4.6867   -0.8664    0.1867 N.am      1 <0>        -0.6641
     14 C10        -5.8078   -1.3971   -0.3405 C.2       1 <0>         0.4941
     15 O3         -5.8272   -2.5621   -0.6768 O.2       1 <0>        -0.5031
     16 C11        -7.0373   -0.5427   -0.5122 C.3       1 <0>         0.1366
     17 C12        -6.9494    0.2171   -1.8372 C.3       1 <0>        -0.1196
     18 C13        -5.6293    0.9884   -1.8963 C.3       1 <0>        -0.0990
     19 C14        -5.6659    2.1398   -0.8894 C.3       1 <0>        -0.1203
     20 C15        -4.3458    2.9110   -0.9484 C.3       1 <0>        -0.1225
     21 C16        -4.1456    3.4721   -2.3577 C.3       1 <0>        -0.1210
     22 C17        -4.1091    2.3208   -3.3646 C.3       1 <0>        -0.1192
     23 C18        -5.4291    1.5495   -3.3056 C.3       1 <0>        -0.1140
     24 C19        -8.2810   -1.4337   -0.5167 C.3       1 <0>        -0.1339
     25 C20        -9.5129   -0.5884   -0.8466 C.3       1 <0>        -0.0081
     26 C21        -9.3917    0.7767   -0.1662 C.3       1 <0>        -0.1436
     27 C22        -9.6089   -0.3964   -2.3615 C.3       1 <0>        -0.1746
     28 C23       -10.7509   -1.2893   -0.3496 C.ar      1 <0>        -0.0646
     29 C24       -10.6440   -2.5059    0.2966 C.ar      1 <0>        -0.1476
     30 C25       -11.7810   -3.1499    0.7537 C.ar      1 <0>         0.0948
     31 C26       -13.0269   -2.5760    0.5637 C.ar      1 <0>        -0.1431
     32 C27       -13.1366   -1.3599   -0.0819 C.ar      1 <0>        -0.1133
     33 C28       -11.9975   -0.7107   -0.5354 C.ar      1 <0>         0.1025
     34 O4        -12.1036    0.4889   -1.1660 O.3       1 <0>        -0.4869
     35 F1        -11.6751   -4.3394    1.3853 F         1 <0>        -0.1372
     36 O5         -7.1236    0.3901    0.5670 O.3       1 <0>        -0.5323
     37 H1         -2.1173   -5.2569   -3.5661 H         1 <0>         0.0941
     38 H2         -3.5694   -4.6127   -2.7631 H         1 <0>         0.1014
     39 H3         -2.4003   -3.5003   -3.5144 H         1 <0>         0.0971
     40 H4         -3.9743   -2.7365   -1.5351 H         1 <0>         0.1590
     41 H5         -2.8158   -0.6652    2.0300 H         1 <0>         0.1450
     42 H6         -0.7466   -1.9868    2.1617 H         1 <0>         0.1511
     43 H7         -4.6935    0.0419    0.5269 H         1 <0>         0.4225
     44 H8         -6.9943   -0.4902   -2.6653 H         1 <0>         0.0876
     45 H9         -7.7823    0.9163   -1.9111 H         1 <0>         0.1136
     46 H10        -4.8055    0.3179   -1.6518 H         1 <0>         0.0705
     47 H11        -6.4897    2.8103   -1.1339 H         1 <0>         0.0639
     48 H12        -5.8085    1.7400    0.1146 H         1 <0>         0.0873
     49 H13        -4.3718    3.7313   -0.2311 H         1 <0>         0.0618
     50 H14        -3.5220    2.2405   -0.7039 H         1 <0>         0.0557
     51 H15        -4.9694    4.1427   -2.6022 H         1 <0>         0.0618
     52 H16        -3.2051    4.0216   -2.3998 H         1 <0>         0.0589
     53 H17        -3.9664    2.7205   -4.3686 H         1 <0>         0.0615
     54 H18        -3.2852    1.6502   -3.1201 H         1 <0>         0.0587
     55 H19        -5.4031    0.7293   -4.0229 H         1 <0>         0.0600
     56 H20        -6.2529    2.2200   -3.5501 H         1 <0>         0.0646
     57 H21        -8.1652   -2.2155   -1.2675 H         1 <0>         0.0919
     58 H22        -8.4053   -1.8891    0.4658 H         1 <0>         0.0787
     59 H23        -8.5633    1.3305   -0.6078 H         1 <0>         0.0804
     60 H24       -10.3173    1.3353   -0.3052 H         1 <0>         0.0648
     61 H25        -9.2084    0.6366    0.8991 H         1 <0>         0.0578
     62 H26        -9.8324   -1.3522   -2.8354 H         1 <0>         0.0558
     63 H27       -10.4024    0.3157   -2.5879 H         1 <0>         0.0635
     64 H28        -8.6603   -0.0161   -2.7404 H         1 <0>         0.0869
     65 H29        -9.6730   -2.9549    0.4447 H         1 <0>         0.1434
     66 H30       -13.9132   -3.0798    0.9202 H         1 <0>         0.1394
     67 H31       -14.1085   -0.9127   -0.2302 H         1 <0>         0.1394
     68 H32       -12.2111    0.4212   -2.1246 H         1 <0>         0.3875
     69 H33        -7.1823   -0.0223    1.4396 H         1 <0>         0.3773
@<TRIPOS>BOND
     1    1    2 1
     2    1   37 1
     3    1   38 1
     4    1   39 1
     5    2   12 2
     6    2    3 1
     7    3    8 ar
     8    3    4 ar
     9    4    5 ar
    10    4   40 1
    11    5    6 ar
    12    5   13 1
    13    6    7 ar
    14    6   41 1
    15    7    8 ar
    16    7   42 1
    17    8    9 1
    18    9   10 2
    19    9   11 1
    20   11   12 1
    21   13   14 am
    22   13   43 1
    23   14   15 2
    24   14   16 1
    25   16   17 1
    26   16   24 1
    27   16   36 1
    28   17   18 1
    29   17   44 1
    30   17   45 1
    31   18   23 1
    32   18   19 1
    33   18   46 1
    34   19   20 1
    35   19   47 1
    36   19   48 1
    37   20   21 1
    38   20   49 1
    39   20   50 1
    40   21   22 1
    41   21   51 1
    42   21   52 1
    43   22   23 1
    44   22   53 1
    45   22   54 1
    46   23   55 1
    47   23   56 1
    48   24   25 1
    49   24   57 1
    50   24   58 1
    51   25   26 1
    52   25   27 1
    53   25   28 1
    54   26   59 1
    55   26   60 1
    56   26   61 1
    57   27   62 1
    58   27   63 1
    59   27   64 1
    60   28   33 ar
    61   28   29 ar
    62   29   30 ar
    63   29   65 1
    64   30   31 ar
    65   30   35 1
    66   31   32 ar
    67   31   66 1
    68   32   33 ar
    69   32   67 1
    70   33   34 1
    71   34   68 1
    72   36   69 1
@<TRIPOS>MOLECULE
CHEMBL331249
   31    34     0     0     0
SMALL
USER_CHARGES

@<TRIPOS>ATOM
      1 C1         -0.0167    1.3786    0.0096 C.ar      1 <0>        -0.1007
      2 C2          1.1676    2.0878    0.0021 C.ar      1 <0>        -0.1091
      3 C3          2.3841    1.4084   -0.0131 C.ar      1 <0>        -0.0243
      4 C4          2.3983    0.0149   -0.0207 C.ar      1 <0>        -0.1063
      5 C5          1.2076   -0.6849   -0.0131 C.ar      1 <0>        -0.0295
      6 C6          0.0021   -0.0041    0.0020 C.ar      1 <0>        -0.1115
      7 Cl1         1.2226   -2.4209   -0.0230 Cl        1 <0>        -0.0661
      8 C7          3.6596    2.1659   -0.0217 C.ar      1 <0>        -0.0669
      9 C8          3.6478    3.5599   -0.0088 C.ar      1 <0>        -0.0706
     10 C9          4.8313    4.2631   -0.0166 C.ar      1 <0>        -0.1331
     11 C10         6.0516    3.5884   -0.0376 C.ar      1 <0>         0.1515
     12 C11         6.0562    2.1962   -0.0501 C.ar      1 <0>        -0.0986
     13 C12         4.8784    1.4878   -0.0369 C.ar      1 <0>        -0.0542
     14 C13         7.5051    1.7871   -0.0712 C.3       1 <0>        -0.1549
     15 C14         7.9875    0.5727   -0.8543 C.3       1 <0>        -0.1220
     16 C15         8.0059    0.5582    0.6769 C.3       1 <0>        -0.1220
     17 C16         8.2716    3.0854   -0.0683 C.2       1 <0>         0.5619
     18 O1          9.4776    3.2134   -0.0813 O.2       1 <0>        -0.4943
     19 N1          7.3596    4.0750   -0.0485 N.am      1 <0>        -0.6574
     20 H1         -0.9598    1.9047    0.0260 H         1 <0>         0.1360
     21 H2          1.1513    3.1677    0.0077 H         1 <0>         0.1332
     22 H3          3.3383   -0.5166   -0.0328 H         1 <0>         0.1356
     23 H4         -0.9269   -0.5548    0.0079 H         1 <0>         0.1350
     24 H5          2.7069    4.0900    0.0071 H         1 <0>         0.1374
     25 H6          4.8146    5.3430   -0.0068 H         1 <0>         0.1328
     26 H7          4.8966    0.4080   -0.0425 H         1 <0>         0.1316
     27 H8          7.2341   -0.0356   -1.3547 H         1 <0>         0.1125
     28 H9          8.9452    0.6531   -1.3687 H         1 <0>         0.1123
     29 H10         8.9756    0.6291    1.1696 H         1 <0>         0.1123
     30 H11         7.2646   -0.0597    1.1836 H         1 <0>         0.1124
     31 H12         7.5856    5.0183   -0.0426 H         1 <0>         0.4171
@<TRIPOS>BOND
     1    1    6 ar
     2    1    2 ar
     3    1   20 1
     4    2    3 ar
     5    2   21 1
     6    3    4 ar
     7    3    8 1
     8    4    5 ar
     9    4   22 1
    10    5    6 ar
    11    5    7 1
    12    6   23 1
    13    8   13 ar
    14    8    9 ar
    15    9   10 ar
    16    9   24 1
    17   10   11 ar
    18   10   25 1
    19   11   19 1
    20   11   12 ar
    21   12   13 ar
    22   12   14 1
    23   13   26 1
    24   14   16 1
    25   14   15 1
    26   14   17 1
    27   15   16 1
    28   15   27 1
    29   15   28 1
    30   16   29 1
    31   16   30 1
    32   17   18 2
    33   17   19 am
    34   19   31 1
@<TRIPOS>MOLECULE
CHEMBL156278
   42    44     0     0     0
SMALL
USER_CHARGES

@<TRIPOS>ATOM
      1 C1         -0.0187    1.5258    0.0104 C.3       1 <0>        -0.1489
      2 C2          0.0021   -0.0041    0.0020 C.3       1 <0>        -0.0448
      3 C3         -1.4333   -0.5287   -0.0131 C.3       1 <0>        -0.1226
      4 C4         -1.4071   -2.0491    0.1903 C.3       1 <0>         0.1696
      5 N1         -0.8487   -2.3144    1.5226 N.pl3     1 <0>        -0.7262
      6 C5          0.2908   -1.6190    1.9290 C.ar      1 <0>         0.2894
      7 C6          0.7316   -0.4991    1.2242 C.ar      1 <0>        -0.1577
      8 C7          1.8478    0.1745    1.6367 C.ar      1 <0>        -0.0161
      9 C8          2.5550   -0.2566    2.7655 C.ar      1 <0>        -0.1699
     10 C9          3.7155    0.4312    3.2047 C.2       1 <0>        -0.0592
     11 C10         4.3748   -0.0170    4.3017 C.2       1 <0>        -0.1721
     12 C11         3.9117   -1.1532    4.9964 C.2       1 <0>         0.5373
     13 O1          4.5166   -1.5431    5.9804 O.2       1 <0>        -0.5248
     14 N2          2.8114   -1.8137    4.5897 N.am      1 <0>        -0.5169
     15 C12         2.1131   -1.3888    3.4781 C.ar      1 <0>         0.2433
     16 C13         0.9787   -2.0625    3.0502 C.ar      1 <0>        -0.2498
     17 C14         2.3533   -2.9913    5.3312 C.3       1 <0>         0.0601
     18 C15         4.2099    1.6449    2.4607 C.3       1 <0>         0.5056
     19 F1          5.3600    2.1386    3.0859 F         1 <0>        -0.1686
     20 F2          4.5115    1.2921    1.1409 F         1 <0>        -0.1680
     21 F3          3.2173    2.6307    2.4647 F         1 <0>        -0.1679
     22 C16        -2.8288   -2.6080    0.1037 C.3       1 <0>        -0.1548
     23 C17        -0.5275   -2.6998   -0.8792 C.3       1 <0>        -0.1634
     24 H1          1.0039    1.9031    0.0027 H         1 <0>         0.0599
     25 H2         -0.5459    1.8868   -0.8726 H         1 <0>         0.0621
     26 H3         -0.5289    1.8773    0.9072 H         1 <0>         0.0596
     27 H4          0.5192   -0.3524   -0.8920 H         1 <0>         0.0852
     28 H5         -2.0011   -0.0623    0.7920 H         1 <0>         0.0737
     29 H6         -1.8971   -0.2963   -0.9717 H         1 <0>         0.0819
     30 H7         -1.2657   -2.9630    2.1111 H         1 <0>         0.4048
     31 H8          2.1853    1.0422    1.0894 H         1 <0>         0.1365
     32 H9          5.2594    0.4989    4.6448 H         1 <0>         0.1674
     33 H10         0.6305   -2.9313    3.5892 H         1 <0>         0.1370
     34 H11         3.0236   -3.1754    6.1708 H         1 <0>         0.1039
     35 H12         1.3440   -2.8161    5.7036 H         1 <0>         0.0782
     36 H13         2.3515   -3.8584    4.6708 H         1 <0>         0.0784
     37 H14        -3.2487   -2.3826   -0.8766 H         1 <0>         0.0765
     38 H15        -2.8040   -3.6880    0.2488 H         1 <0>         0.0638
     39 H16        -3.4464   -2.1515    0.8772 H         1 <0>         0.0644
     40 H17         0.4869   -2.3084   -0.8028 H         1 <0>         0.0641
     41 H18        -0.5126   -3.7794   -0.7299 H         1 <0>         0.0600
     42 H19        -0.9302   -2.4751   -1.8669 H         1 <0>         0.0691
@<TRIPOS>BOND
     1    1    2 1
     2    1   24 1
     3    1   25 1
     4    1   26 1
     5    2    7 1
     6    2    3 1
     7    2   27 1
     8    3    4 1
     9    3   28 1
    10    3   29 1
    11    4    5 1
    12    4   22 1
    13    4   23 1
    14    5    6 1
    15    5   30 1
    16    6   16 ar
    17    6    7 ar
    18    7    8 ar
    19    8    9 ar
    20    8   31 1
    21    9   15 ar
    22    9   10 1
    23   10   11 2
    24   10   18 1
    25   11   12 1
    26   11   32 1
    27   12   13 2
    28   12   14 am
    29   14   15 1
    30   14   17 1
    31   15   16 ar
    32   16   33 1
    33   17   34 1
    34   17   35 1
    35   17   36 1
    36   18   19 1
    37   18   20 1
    38   18   21 1
    39   22   37 1
    40   22   38 1
    41   22   39 1
    42   23   40 1
    43   23   41 1
    44   23   42 1
@<TRIPOS>MOLECULE
CHEMBL156278__1
   42    44     0     0     0
SMALL
USER_CHARGES

@<TRIPOS>ATOM
      1 C1         -0.0187    1.5258    0.0104 C.3       1 <0>        -0.1489
      2 C2          0.0021   -0.0041    0.0020 C.3       1 <0>        -0.0448
      3 C3          0.6954   -0.4929   -1.2693 C.3       1 <0>        -0.1226
      4 C4          0.8986   -2.0104   -1.1704 C.3       1 <0>         0.1695
      5 N1          1.8015   -2.2699   -0.0413 N.pl3     1 <0>        -0.7262
      6 C5          1.5893   -1.5971    1.1627 C.ar      1 <0>         0.2894
      7 C6          0.7316   -0.4991    1.2242 C.ar      1 <0>        -0.1577
      8 C7          0.5366    0.1525    2.4104 C.ar      1 <0>        -0.0160
      9 C8          1.1937   -0.2794    3.5689 C.ar      1 <0>        -0.1699
     10 C9          1.0003    0.3855    4.8070 C.2       1 <0>        -0.0591
     11 C10         1.6530   -0.0628    5.9079 C.2       1 <0>        -0.1721
     12 C11         2.5131   -1.1767    5.8218 C.2       1 <0>         0.5373
     13 O1          3.0919   -1.5671    6.8212 O.2       1 <0>        -0.5248
     14 N2          2.7045   -1.8161    4.6525 N.am      1 <0>        -0.5169
     15 C12         2.0591   -1.3897    3.5099 C.ar      1 <0>         0.2434
     16 C13         2.2494   -2.0412    2.3003 C.ar      1 <0>        -0.2498
     17 C14         3.6041   -2.9708    4.5928 C.3       1 <0>         0.0601
     18 C15         0.0800    1.5755    4.8979 C.3       1 <0>         0.5056
     19 F1          0.0593    2.0495    6.2139 F         1 <0>        -0.1686
     20 F2          0.5385    2.5857    4.0455 F         1 <0>        -0.1679
     21 F3         -1.2119    1.1959    4.5185 F         1 <0>        -0.1680
     22 C16         1.5235   -2.5349   -2.4647 C.3       1 <0>        -0.1548
     23 C17        -0.4462   -2.6984   -0.9272 C.3       1 <0>        -0.1634
     24 H1          1.0039    1.9031    0.0027 H         1 <0>         0.0596
     25 H2         -0.5459    1.8868   -0.8726 H         1 <0>         0.0621
     26 H3         -0.5289    1.8773    0.9072 H         1 <0>         0.0599
     27 H4         -1.0215   -0.3783    0.0172 H         1 <0>         0.0852
     28 H5          0.0746   -0.2632   -2.1353 H         1 <0>         0.0819
     29 H6          1.6627   -0.0007   -1.3701 H         1 <0>         0.0737
     30 H7          2.5338   -2.8996   -0.1311 H         1 <0>         0.4048
     31 H8         -0.1265    1.0038    2.4538 H         1 <0>         0.1365
     32 H9          1.5131    0.4359    6.8556 H         1 <0>         0.1674
     33 H10         2.9104   -2.8934    2.2436 H         1 <0>         0.1371
     34 H11         4.0204   -3.1587    5.5825 H         1 <0>         0.1039
     35 H12         3.0485   -3.8474    4.2599 H         1 <0>         0.0784
     36 H13         4.4129   -2.7653    3.8915 H         1 <0>         0.0782
     37 H14         2.4875   -2.0518   -2.6245 H         1 <0>         0.0644
     38 H15         1.6655   -3.6129   -2.3888 H         1 <0>         0.0638
     39 H16         0.8628   -2.3135   -3.3029 H         1 <0>         0.0764
     40 H17        -1.1217   -2.4783   -1.7539 H         1 <0>         0.0691
     41 H18        -0.2958   -3.7758   -0.8579 H         1 <0>         0.0600
     42 H19        -0.8791   -2.3314    0.0033 H         1 <0>         0.0641
@<TRIPOS>BOND
     1    1    2 1
     2    1   24 1
     3    1   25 1
     4    1   26 1
     5    2    7 1
     6    2    3 1
     7    2   27 1
     8    3    4 1
     9    3   28 1
    10    3   29 1
    11    4    5 1
    12    4   22 1
    13    4   23 1
    14    5    6 1
    15    5   30 1
    16    6   16 ar
    17    6    7 ar
    18    7    8 ar
    19    8    9 ar
    20    8   31 1
    21    9   15 ar
    22    9   10 1
    23   10   11 2
    24   10   18 1
    25   11   12 1
    26   11   32 1
    27   12   13 2
    28   12   14 am
    29   14   15 1
    30   14   17 1
    31   15   16 ar
    32   16   33 1
    33   17   34 1
    34   17   35 1
    35   17   36 1
    36   18   19 1
    37   18   20 1
    38   18   21 1
    39   22   37 1
    40   22   38 1
    41   22   39 1
    42   23   40 1
    43   23   41 1
    44   23   42 1
@<TRIPOS>MOLECULE
CHEMBL283759
   37    40     0     0     0
SMALL
USER_CHARGES

@<TRIPOS>ATOM
      1 C1         -0.0167    1.3786    0.0096 C.ar      1 <0>        -0.1011
      2 C2          1.1676    2.0878    0.0021 C.ar      1 <0>        -0.1068
      3 C3          2.3841    1.4084   -0.0131 C.ar      1 <0>        -0.0295
      4 C4          2.3983    0.0149   -0.0207 C.ar      1 <0>        -0.1035
      5 C5          1.2076   -0.6850   -0.0131 C.ar      1 <0>        -0.0301
      6 C6          0.0021   -0.0041    0.0020 C.ar      1 <0>        -0.1085
      7 Cl1         1.2226   -2.4209   -0.0230 Cl        1 <0>        -0.0640
      8 C7          3.6596    2.1658   -0.0217 C.ar      1 <0>        -0.0529
      9 C8          3.6476    3.5600   -0.0088 C.ar      1 <0>        -0.0755
     10 C9          4.8311    4.2630   -0.0172 C.ar      1 <0>        -0.1183
     11 C10         6.0516    3.5883   -0.0387 C.ar      1 <0>         0.1132
     12 C11         6.0565    2.1956   -0.0500 C.ar      1 <0>        -0.1103
     13 C12         4.8783    1.4877   -0.0369 C.ar      1 <0>        -0.0549
     14 C13         7.5044    1.7878   -0.0683 C.3       1 <0>        -0.0223
     15 C14         7.8288    0.9541   -1.3157 C.3       1 <0>        -0.0925
     16 C15         8.8810   -0.0710   -0.8191 C.3       1 <0>        -0.1251
     17 C16         8.3864   -0.4077    0.6103 C.3       1 <0>        -0.1198
     18 C17         7.8579    0.9375    1.1554 C.3       1 <0>        -0.0969
     19 C18         8.2706    3.0844   -0.0703 C.2       1 <0>         0.2716
     20 N1          7.3589    4.0747   -0.0523 N.pl3     1 <0>        -0.5911
     21 S1          9.8606    3.2524   -0.0896 S.2       1 <0>        -0.3699
     22 H1         -0.9598    1.9047    0.0260 H         1 <0>         0.1368
     23 H2          1.1513    3.1677    0.0077 H         1 <0>         0.1332
     24 H3          3.3383   -0.5167   -0.0328 H         1 <0>         0.1364
     25 H4         -0.9269   -0.5548    0.0083 H         1 <0>         0.1360
     26 H5          2.7068    4.0900    0.0076 H         1 <0>         0.1397
     27 H6          4.8145    5.3429   -0.0075 H         1 <0>         0.1336
     28 H7          4.8962    0.4078   -0.0426 H         1 <0>         0.1355
     29 H8          6.9365    0.4419   -1.6755 H         1 <0>         0.0807
     30 H9          8.2499    1.5853   -2.0982 H         1 <0>         0.0729
     31 H10         8.8791   -0.9613   -1.4479 H         1 <0>         0.0730
     32 H11         9.8733    0.3789   -0.7881 H         1 <0>         0.0862
     33 H12         7.5849   -1.1454    0.5727 H         1 <0>         0.0683
     34 H13         9.2112   -0.7702    1.2238 H         1 <0>         0.0754
     35 H14         8.6300    1.4321    1.7446 H         1 <0>         0.0796
     36 H15         6.9697    0.7714    1.7651 H         1 <0>         0.0757
     37 H16         7.5850    5.0179   -0.0495 H         1 <0>         0.4251
@<TRIPOS>BOND
     1    1    6 ar
     2    1    2 ar
     3    1   22 1
     4    2    3 ar
     5    2   23 1
     6    3    4 ar
     7    3    8 1
     8    4    5 ar
     9    4   24 1
    10    5    6 ar
    11    5    7 1
    12    6   25 1
    13    8   13 ar
    14    8    9 ar
    15    9   10 ar
    16    9   26 1
    17   10   11 ar
    18   10   27 1
    19   11   20 1
    20   11   12 ar
    21   12   13 ar
    22   12   14 1
    23   13   28 1
    24   14   18 1
    25   14   15 1
    26   14   19 1
    27   15   16 1
    28   15   29 1
    29   15   30 1
    30   16   17 1
    31   16   31 1
    32   16   32 1
    33   17   18 1
    34   17   33 1
    35   17   34 1
    36   18   35 1
    37   18   36 1
    38   19   20 1
    39   19   21 2
    40   20   37 1
@<TRIPOS>MOLECULE
CHEMBL511812
   51    54     0     0     0
SMALL
USER_CHARGES

@<TRIPOS>ATOM
      1 C1         -0.5965    0.9627   -0.1036 C.3       1 <0>        -0.1627
      2 C2         -0.3058   -0.5320    0.0458 C.3       1 <0>        -0.1233
      3 C3          0.3971   -1.0432   -1.2133 C.3       1 <0>        -0.0047
      4 C4          1.7187   -0.2960   -1.3788 C.3       1 <0>        -0.1548
      5 C5          2.5690   -0.5104   -0.1224 C.3       1 <0>         0.0793
      6 H1          2.0408   -0.1125    0.7441 H         1 <0>         0.0727
      7 C6          2.8304   -2.0025    0.0839 C.3       1 <0>         0.1906
      8 C7          1.5017   -2.7532    0.2203 C.3       1 <0>        -0.1003
      9 C8          0.6804   -2.5356   -1.0491 C.3       1 <0>        -0.0756
     10 H2          1.2419   -2.8958   -1.9111 H         1 <0>         0.0812
     11 C9         -0.6579   -3.2707   -0.9697 C.3       1 <0>        -0.1168
     12 C10        -1.3142   -3.2167   -2.3488 C.3       1 <0>        -0.0814
     13 C11        -1.3045   -1.8164   -2.9031 C.ar      1 <0>        -0.0546
     14 C12        -0.4975   -0.8106   -2.3975 C.ar      1 <0>        -0.0694
     15 C13        -0.5236    0.4574   -2.9614 C.ar      1 <0>        -0.0979
     16 C14        -1.3323    0.7277   -4.0452 C.ar      1 <0>        -0.1498
     17 C15        -2.1278   -0.2773   -4.5756 C.ar      1 <0>         0.1032
     18 C16        -2.1350   -1.5457   -3.9821 C.ar      1 <0>        -0.1471
     19 O1         -2.9316   -0.0209   -5.6409 O.3       1 <0>        -0.4995
     20 C17         3.5922   -2.5449   -1.0978 C.ar      1 <0>        -0.1140
     21 C18         4.0812   -1.6816   -2.0603 C.ar      1 <0>        -0.1072
     22 C19         4.7800   -2.1791   -3.1442 C.ar      1 <0>        -0.1316
     23 C20         4.9903   -3.5400   -3.2655 C.ar      1 <0>        -0.1154
     24 C21         4.5021   -4.4033   -2.3025 C.ar      1 <0>        -0.1284
     25 C22         3.8070   -3.9054   -1.2163 C.ar      1 <0>        -0.0987
     26 O2          3.6044   -2.1888    1.2706 O.3       1 <0>        -0.5504
     27 O3          3.8161    0.1711   -0.2718 O.3       1 <0>        -0.5595
     28 H3          0.3401    1.5030   -0.2416 H         1 <0>         0.0535
     29 H4         -1.2394    1.1231   -0.9692 H         1 <0>         0.0641
     30 H5         -1.0973    1.3270    0.7934 H         1 <0>         0.0550
     31 H6          0.3370   -0.6923    0.9113 H         1 <0>         0.0738
     32 H7         -1.2424   -1.0722    0.1838 H         1 <0>         0.0706
     33 H8          2.2496   -0.6813   -2.2493 H         1 <0>         0.0907
     34 H9          1.5226    0.7682   -1.5098 H         1 <0>         0.0760
     35 H10         1.6954   -3.8177    0.3521 H         1 <0>         0.0810
     36 H11         0.9526   -2.3705    1.0807 H         1 <0>         0.0811
     37 H12        -0.4908   -4.3088   -0.6822 H         1 <0>         0.0731
     38 H13        -1.3016   -2.7845   -0.2367 H         1 <0>         0.0734
     39 H14        -0.7715   -3.8736   -3.0286 H         1 <0>         0.0781
     40 H15        -2.3450   -3.5615   -2.2675 H         1 <0>         0.0777
     41 H16         0.0956    1.2396   -2.5477 H         1 <0>         0.1271
     42 H17        -1.3464    1.7168   -4.4786 H         1 <0>         0.1275
     43 H18        -2.7603   -2.3284   -4.3857 H         1 <0>         0.1271
     44 H19        -2.5103   -0.1749   -6.4976 H         1 <0>         0.3906
     45 H20         3.9169   -0.6184   -1.9656 H         1 <0>         0.1518
     46 H21         5.1614   -1.5047   -3.8966 H         1 <0>         0.1188
     47 H22         5.5357   -3.9288   -4.1127 H         1 <0>         0.1187
     48 H23         4.6661   -5.4665   -2.3974 H         1 <0>         0.1202
     49 H24         3.4288   -4.5795   -0.4621 H         1 <0>         0.1205
     50 H25         4.4646   -1.7474    1.2525 H         1 <0>         0.3848
     51 H26         3.7298    1.1258   -0.3994 H         1 <0>         0.3806
@<TRIPOS>BOND
     1    1    2 1
     2    1   28 1
     3    1   29 1
     4    1   30 1
     5    2    3 1
     6    2   31 1
     7    2   32 1
     8    3    9 1
     9    3   14 1
    10    3    4 1
    11    4    5 1
    12    4   33 1
    13    4   34 1
    14    5    6 1
    15    5    7 1
    16    5   27 1
    17    7    8 1
    18    7   20 1
    19    7   26 1
    20    8    9 1
    21    8   35 1
    22    8   36 1
    23    9   10 1
    24    9   11 1
    25   11   12 1
    26   11   37 1
    27   11   38 1
    28   12   13 1
    29   12   39 1
    30   12   40 1
    31   13   18 ar
    32   13   14 ar
    33   14   15 ar
    34   15   16 ar
    35   15   41 1
    36   16   17 ar
    37   16   42 1
    38   17   18 ar
    39   17   19 1
    40   18   43 1
    41   19   44 1
    42   20   25 ar
    43   20   21 ar
    44   21   22 ar
    45   21   45 1
    46   22   23 ar
    47   22   46 1
    48   23   24 ar
    49   23   47 1
    50   24   25 ar
    51   24   48 1
    52   25   49 1
    53   26   50 1
    54   27   51 1
@<TRIPOS>MOLECULE
CHEMBL436848
   47    50     0     0     0
SMALL
USER_CHARGES

@<TRIPOS>ATOM
      1 C1         -0.3182    1.3105   -0.2793 C.3       1 <0>        -0.1080
      2 C2         -0.2754   -0.1928   -0.1819 C.ar      1 <0>        -0.1516
      3 C3         -0.3738   -0.9572   -1.3234 C.ar      1 <0>        -0.0558
      4 C4         -0.3342   -2.3494   -1.2309 C.ar      1 <0>        -0.0805
      5 C5         -0.1971   -2.9590    0.0175 C.ar      1 <0>         0.0282
      6 C6         -0.1001   -2.1873    1.1610 C.ar      1 <0>        -0.1343
      7 C7         -0.1310   -0.8032    1.0611 C.ar      1 <0>         0.2429
      8 N1         -0.0197   -0.0008    2.2009 N.pl3     1 <0>        -0.7325
      9 C8         -0.1669   -0.6211    3.5244 C.3       1 <0>         0.1699
     10 C9          0.6476   -1.9214    3.5261 C.3       1 <0>        -0.1197
     11 C10         0.0412   -2.8771    2.4925 C.3       1 <0>        -0.0416
     12 C11         0.9654   -4.0868    2.3390 C.3       1 <0>        -0.1599
     13 C12        -1.6412   -0.9328    3.7894 C.3       1 <0>        -0.1625
     14 C13         0.3655    0.3252    4.6023 C.3       1 <0>        -0.1540
     15 Cl1        -0.1488   -4.6903    0.1348 Cl        1 <0>        -0.0470
     16 C14        -0.4378   -3.1764   -2.4518 C.2       1 <0>         0.1242
     17 C15         0.2741   -4.3053   -2.6948 C.2       1 <0>        -0.1737
     18 C16        -0.1403   -4.7960   -4.0082 C.ar      1 <0>        -0.1073
     19 C17         0.2262   -5.8949   -4.7907 C.ar      1 <0>        -0.0698
     20 C18        -0.3597   -6.0849   -6.0100 C.ar      1 <0>        -0.1476
     21 C19        -1.3167   -5.1950   -6.4788 C.ar      1 <0>        -0.0982
     22 C20        -1.6927   -4.1048   -5.7245 C.ar      1 <0>        -0.1318
     23 C21        -1.1103   -3.8911   -4.4797 C.ar      1 <0>         0.1024
     24 N2         -1.2752   -2.9225   -3.5134 N.pl3     1 <0>        -0.5902
     25 H1         -1.8877   -2.1728   -3.5738 H         1 <0>         0.4132
     26 H2          0.6933    1.6950   -0.4108 H         1 <0>         0.0695
     27 H3         -0.9313    1.6020   -1.1321 H         1 <0>         0.0695
     28 H4         -0.7473    1.7218    0.6343 H         1 <0>         0.0635
     29 H5         -0.4816   -0.4811   -2.2868 H         1 <0>         0.1286
     30 H6          0.1523    0.9503    2.1190 H         1 <0>         0.4034
     31 H7          1.6843   -1.7033    3.2695 H         1 <0>         0.0736
     32 H8          0.6025   -2.3793    4.5142 H         1 <0>         0.0803
     33 H9         -0.9392   -3.2145    2.8287 H         1 <0>         0.0853
     34 H10         1.7103   -3.8797    1.5706 H         1 <0>         0.0597
     35 H11         1.4661   -4.2840    3.2868 H         1 <0>         0.0522
     36 H12         0.3780   -4.9584    2.0500 H         1 <0>         0.0747
     37 H13        -2.0103   -1.6187    3.0268 H         1 <0>         0.0625
     38 H14        -1.7444   -1.3927    4.7722 H         1 <0>         0.0673
     39 H15        -2.2192   -0.0093    3.7579 H         1 <0>         0.0586
     40 H16        -0.1974    1.2583    4.5769 H         1 <0>         0.0624
     41 H17         0.2537   -0.1400    5.5817 H         1 <0>         0.0751
     42 H18         1.4195    0.5316    4.4162 H         1 <0>         0.0637
     43 H19         1.0077   -4.7556   -2.0425 H         1 <0>         0.1485
     44 H20         0.9702   -6.5911   -4.4326 H         1 <0>         0.1217
     45 H21        -0.0760   -6.9338   -6.6143 H         1 <0>         0.1220
     46 H22        -1.7709   -5.3587   -7.4449 H         1 <0>         0.1245
     47 H23        -2.4382   -3.4186   -6.0985 H         1 <0>         0.1187
@<TRIPOS>BOND
     1    1    2 1
     2    1   26 1
     3    1   27 1
     4    1   28 1
     5    2    7 ar
     6    2    3 ar
     7    3    4 ar
     8    3   29 1
     9    4    5 ar
    10    4   16 1
    11    5    6 ar
    12    5   15 1
    13    6   11 1
    14    6    7 ar
    15    7    8 1
    16    8    9 1
    17    8   30 1
    18    9   10 1
    19    9   13 1
    20    9   14 1
    21   10   11 1
    22   10   31 1
    23   10   32 1
    24   11   12 1
    25   11   33 1
    26   12   34 1
    27   12   35 1
    28   12   36 1
    29   13   37 1
    30   13   38 1
    31   13   39 1
    32   14   40 1
    33   14   41 1
    34   14   42 1
    35   16   24 1
    36   16   17 2
    37   17   18 1
    38   17   43 1
    39   18   23 ar
    40   18   19 ar
    41   19   20 ar
    42   19   44 1
    43   20   21 ar
    44   20   45 1
    45   21   22 ar
    46   21   46 1
    47   22   23 ar
    48   22   47 1
    49   23   24 1
    50   24   25 1
@<TRIPOS>MOLECULE
CHEMBL436848__1
   47    50     0     0     0
SMALL
USER_CHARGES

@<TRIPOS>ATOM
      1 C1         -0.1487    1.5795    0.1592 C.3       1 <0>        -0.1047
      2 C2         -0.1219    0.0739    0.1013 C.ar      1 <0>        -0.1516
      3 C3         -0.1687   -0.5667   -1.1171 C.ar      1 <0>        -0.0559
      4 C4         -0.1435   -1.9614   -1.1684 C.ar      1 <0>        -0.0803
      5 C5         -0.0692   -2.6988    0.0146 C.ar      1 <0>         0.0284
      6 C6         -0.0210   -2.0511    1.2355 C.ar      1 <0>        -0.1340
      7 C7         -0.0441   -0.6640    1.2794 C.ar      1 <0>         0.2430
      8 N1         -0.0004    0.0140    2.5017 N.pl3     1 <0>        -0.7333
      9 C8          0.3783   -0.7266    3.7125 C.3       1 <0>         0.1712
     10 C9         -0.3787   -2.0611    3.7020 C.3       1 <0>        -0.1205
     11 C10         0.0645   -2.8768    2.4924 C.3       1 <0>        -0.0415
     12 C11        -0.8278   -4.1111    2.3474 C.3       1 <0>        -0.1584
     13 C12        -0.0084    0.0787    4.9547 C.3       1 <0>        -0.1538
     14 C13         1.8861   -0.9862    3.7108 C.3       1 <0>        -0.1623
     15 Cl1        -0.0367   -4.4333   -0.0472 Cl        1 <0>        -0.0469
     16 C14        -0.1958   -2.6559   -2.4723 C.2       1 <0>         0.1244
     17 C15         0.5185   -3.7619   -2.7989 C.2       1 <0>        -0.1739
     18 C16         0.1624   -4.1087   -4.1738 C.ar      1 <0>        -0.1073
     19 C17         0.5571   -5.1248   -5.0489 C.ar      1 <0>        -0.0698
     20 C18         0.0275   -5.1802   -6.3069 C.ar      1 <0>        -0.1476
     21 C19        -0.9001   -4.2351   -6.7237 C.ar      1 <0>        -0.0982
     22 C20        -1.3031   -3.2246   -5.8779 C.ar      1 <0>        -0.1318
     23 C21        -0.7779   -3.1482   -4.5923 C.ar      1 <0>         0.1024
     24 N2         -0.9809   -2.2832   -3.5388 N.pl3     1 <0>        -0.5902
     25 H1         -1.5845   -1.5240   -3.5488 H         1 <0>         0.4131
     26 H2          0.8708    1.9629    0.1182 H         1 <0>         0.0708
     27 H3         -0.7164    1.9656   -0.6874 H         1 <0>         0.0690
     28 H4         -0.6200    1.8991    1.0887 H         1 <0>         0.0604
     29 H5         -0.2250    0.0081   -2.0297 H         1 <0>         0.1287
     30 H6         -0.2164    0.9585    2.5492 H         1 <0>         0.4027
     31 H7         -0.1601   -2.6122    4.6167 H         1 <0>         0.0808
     32 H8         -1.4502   -1.8726    3.6342 H         1 <0>         0.0715
     33 H9          1.0959   -3.1951    2.6442 H         1 <0>         0.0840
     34 H10        -0.2594   -4.9181    1.8850 H         1 <0>         0.0755
     35 H11        -1.1730   -4.4275    3.3317 H         1 <0>         0.0519
     36 H12        -1.6867   -3.8671    1.7223 H         1 <0>         0.0587
     37 H13        -1.0852    0.2476    4.9575 H         1 <0>         0.0632
     38 H14         0.2749   -0.4753    5.8496 H         1 <0>         0.0752
     39 H15         0.5098    1.0376    4.9418 H         1 <0>         0.0627
     40 H16         2.4185   -0.0353    3.6886 H         1 <0>         0.0591
     41 H17         2.1612   -1.5357    4.6110 H         1 <0>         0.0673
     42 H18         2.1528   -1.5725    2.8315 H         1 <0>         0.0628
     43 H19         1.2175   -4.2863   -2.1641 H         1 <0>         0.1484
     44 H20         1.2786   -5.8633   -4.7317 H         1 <0>         0.1217
     45 H21         0.3330   -5.9652   -6.9828 H         1 <0>         0.1220
     46 H22        -1.3099   -4.2922   -7.7214 H         1 <0>         0.1245
     47 H23        -2.0253   -2.4944   -6.2121 H         1 <0>         0.1187
@<TRIPOS>BOND
     1    1    2 1
     2    1   26 1
     3    1   27 1
     4    1   28 1
     5    2    7 ar
     6    2    3 ar
     7    3    4 ar
     8    3   29 1
     9    4    5 ar
    10    4   16 1
    11    5    6 ar
    12    5   15 1
    13    6   11 1
    14    6    7 ar
    15    7    8 1
    16    8    9 1
    17    8   30 1
    18    9   10 1
    19    9   13 1
    20    9   14 1
    21   10   11 1
    22   10   31 1
    23   10   32 1
    24   11   12 1
    25   11   33 1
    26   12   34 1
    27   12   35 1
    28   12   36 1
    29   13   37 1
    30   13   38 1
    31   13   39 1
    32   14   40 1
    33   14   41 1
    34   14   42 1
    35   16   24 1
    36   16   17 2
    37   17   18 1
    38   17   43 1
    39   18   23 ar
    40   18   19 ar
    41   19   20 ar
    42   19   44 1
    43   20   21 ar
    44   20   45 1
    45   21   22 ar
    46   21   46 1
    47   22   23 ar
    48   22   47 1
    49   23   24 1
    50   24   25 1
@<TRIPOS>MOLECULE
CHEMBL25261
   34    37     0     0     0
SMALL
USER_CHARGES

@<TRIPOS>ATOM
      1 C1         -0.0167    1.3786    0.0096 C.ar      1 <0>        -0.1010
      2 C2          1.1676    2.0878    0.0021 C.ar      1 <0>        -0.1068
      3 C3          2.3841    1.4084   -0.0131 C.ar      1 <0>        -0.0294
      4 C4          2.3983    0.0149   -0.0207 C.ar      1 <0>        -0.1036
      5 C5          1.2076   -0.6850   -0.0131 C.ar      1 <0>        -0.0301
      6 C6          0.0021   -0.0041    0.0020 C.ar      1 <0>        -0.1085
      7 Cl1         1.2226   -2.4209   -0.0230 Cl        1 <0>        -0.0640
      8 C7          3.6596    2.1658   -0.0217 C.ar      1 <0>        -0.0529
      9 C8          3.6476    3.5600   -0.0088 C.ar      1 <0>        -0.0754
     10 C9          4.8311    4.2630   -0.0175 C.ar      1 <0>        -0.1184
     11 C10         6.0517    3.5884   -0.0383 C.ar      1 <0>         0.1136
     12 C11         6.0566    2.1952   -0.0495 C.ar      1 <0>        -0.1070
     13 C12         4.8783    1.4877   -0.0369 C.ar      1 <0>        -0.0550
     14 C13         7.5042    1.7904   -0.0674 C.3       1 <0>        -0.0584
     15 C14         7.9040    0.7759   -1.1383 C.3       1 <0>        -0.0992
     16 C15         8.8543    0.1717   -0.0885 C.3       1 <0>        -0.1413
     17 C16         7.9258    0.7660    0.9860 C.3       1 <0>        -0.0993
     18 C17         8.2716    3.0851   -0.0684 C.2       1 <0>         0.2823
     19 N1          7.3590    4.0753   -0.0510 N.pl3     1 <0>        -0.5896
     20 S1          9.8617    3.2524   -0.0858 S.2       1 <0>        -0.3680
     21 H1         -0.9598    1.9047    0.0260 H         1 <0>         0.1369
     22 H2          1.1513    3.1677    0.0077 H         1 <0>         0.1332
     23 H3          3.3383   -0.5167   -0.0328 H         1 <0>         0.1363
     24 H4         -0.9269   -0.5548    0.0083 H         1 <0>         0.1361
     25 H5          2.7068    4.0901    0.0078 H         1 <0>         0.1398
     26 H6          4.8144    5.3428   -0.0085 H         1 <0>         0.1336
     27 H7          4.8960    0.4078   -0.0430 H         1 <0>         0.1348
     28 H8          7.0945    0.1076   -1.4317 H         1 <0>         0.0958
     29 H9          8.4189    1.2195   -1.9905 H         1 <0>         0.0797
     30 H10         8.8737   -0.9181   -0.0938 H         1 <0>         0.0761
     31 H11         9.8507    0.6134   -0.0966 H         1 <0>         0.1081
     32 H12         8.4580    1.2018    1.8316 H         1 <0>         0.0796
     33 H13         7.1224    0.0949    1.2897 H         1 <0>         0.0958
     34 H14         7.5847    5.0186   -0.0480 H         1 <0>         0.4262
@<TRIPOS>BOND
     1    1    6 ar
     2    1    2 ar
     3    1   21 1
     4    2    3 ar
     5    2   22 1
     6    3    4 ar
     7    3    8 1
     8    4    5 ar
     9    4   23 1
    10    5    6 ar
    11    5    7 1
    12    6   24 1
    13    8   13 ar
    14    8    9 ar
    15    9   10 ar
    16    9   25 1
    17   10   11 ar
    18   10   26 1
    19   11   19 1
    20   11   12 ar
    21   12   13 ar
    22   12   14 1
    23   13   27 1
    24   14   17 1
    25   14   15 1
    26   14   18 1
    27   15   16 1
    28   15   28 1
    29   15   29 1
    30   16   17 1
    31   16   30 1
    32   16   31 1
    33   17   32 1
    34   17   33 1
    35   18   19 1
    36   18   20 2
    37   19   34 1
@<TRIPOS>MOLECULE
CHEMBL552108
   49    51     0     0     0
SMALL
USER_CHARGES

@<TRIPOS>ATOM
      1 C1         -0.7235    1.4787    0.2624 C.3       1 <0>        -0.1849
      2 C2         -0.0726    0.1352   -0.0727 C.3       1 <0>         0.2433
      3 C3          0.6418   -0.3942    1.1439 C.2       1 <0>         0.1394
      4 N1          1.9327   -0.4138    1.3355 N.2       1 <0>        -0.2625
      5 N2          2.1923   -0.9344    2.4824 N.2       1 <0>        -0.2917
      6 C4          1.0788   -1.2706    3.0745 C.2       1 <0>         0.1530
      7 N3          0.0628   -0.9328    2.2442 N.pl3     1 <0>        -0.4721
      8 C5         -1.3705   -1.1155    2.4857 C.3       1 <0>         0.0658
      9 N4          0.8888    0.3169   -1.1631 N.pl3     1 <0>        -0.5990
     10 C6          0.7415   -0.4470   -2.4045 C.3       1 <0>         0.1241
     11 C7         -0.1312    0.3380   -3.3858 C.3       1 <0>        -0.1052
     12 C8          0.5866    1.6282   -3.7872 C.3       1 <0>        -0.1179
     13 C9         -0.2861    2.4132   -4.7686 C.3       1 <0>        -0.1197
     14 C10        -0.5431    1.5637   -6.0148 C.3       1 <0>        -0.1214
     15 C11        -1.2609    0.2735   -5.6134 C.3       1 <0>        -0.1180
     16 C12        -0.3882   -0.5115   -4.6320 C.3       1 <0>        -0.1135
     17 C13         1.9422    1.2152   -1.0196 C.ar      1 <0>         0.2696
     18 C14         2.8156    1.4364   -2.0811 C.ar      1 <0>        -0.1926
     19 C15         3.8584    2.3236   -1.9437 C.ar      1 <0>        -0.0166
     20 C16         4.0411    3.0042   -0.7357 C.ar      1 <0>        -0.0817
     21 C17         3.1618    2.7799    0.3294 C.ar      1 <0>         0.0512
     22 C18         2.1164    1.8939    0.1820 C.ar      1 <0>        -0.1595
     23 Cl1         3.3835    3.6211    1.8317 Cl        1 <0>        -0.0568
     24 C19         5.1255    3.9278   -0.5890 C.1       1 <0>         0.2578
     25 N5          5.9858    4.6606   -0.4727 N.1       1 <0>        -0.4185
     26 H1          0.0518    2.2252    0.4344 H         1 <0>         0.0860
     27 H2         -1.3539    1.7944   -0.5689 H         1 <0>         0.0807
     28 H3         -1.3323    1.3735    1.1604 H         1 <0>         0.0686
     29 H4         -0.8410   -0.5741   -0.3803 H         1 <0>         0.1091
     30 H5          0.9846   -1.7293    4.0477 H         1 <0>         0.2190
     31 H6         -1.6800   -2.0923    2.1139 H         1 <0>         0.0852
     32 H7         -1.5694   -1.0543    3.5557 H         1 <0>         0.0964
     33 H8         -1.9287   -0.3359    1.9672 H         1 <0>         0.0924
     34 H9          1.7236   -0.6154   -2.8462 H         1 <0>         0.0853
     35 H10         0.2714   -1.4061   -2.1873 H         1 <0>         0.0779
     36 H11        -1.0813    0.5834   -2.9111 H         1 <0>         0.0736
     37 H12         0.7696    2.2335   -2.8994 H         1 <0>         0.0711
     38 H13         1.5366    1.3828   -4.2619 H         1 <0>         0.0659
     39 H14        -1.2362    2.6586   -4.2939 H         1 <0>         0.0587
     40 H15         0.2253    3.3324   -5.0545 H         1 <0>         0.0617
     41 H16        -1.1648    2.1229   -6.7139 H         1 <0>         0.0595
     42 H17         0.4069    1.3183   -6.4895 H         1 <0>         0.0617
     43 H18        -2.2109    0.5189   -5.1387 H         1 <0>         0.0602
     44 H19        -1.4440   -0.3317   -6.5012 H         1 <0>         0.0616
     45 H20         0.5618   -0.7569   -5.1067 H         1 <0>         0.0651
     46 H21        -0.8996   -1.4307   -4.3461 H         1 <0>         0.0618
     47 H22         2.6746    0.9105   -3.0138 H         1 <0>         0.1432
     48 H23         4.5354    2.4940   -2.7678 H         1 <0>         0.1395
     49 H24         1.4343    1.7231    1.0018 H         1 <0>         0.1431
@<TRIPOS>BOND
     1    1    2 1
     2    1   26 1
     3    1   27 1
     4    1   28 1
     5    2    3 1
     6    2    9 1
     7    2   29 1
     8    3    7 1
     9    3    4 2
    10    4    5 1
    11    5    6 2
    12    6    7 1
    13    6   30 1
    14    7    8 1
    15    8   31 1
    16    8   32 1
    17    8   33 1
    18    9   10 1
    19    9   17 1
    20   10   11 1
    21   10   34 1
    22   10   35 1
    23   11   16 1
    24   11   12 1
    25   11   36 1
    26   12   13 1
    27   12   37 1
    28   12   38 1
    29   13   14 1
    30   13   39 1
    31   13   40 1
    32   14   15 1
    33   14   41 1
    34   14   42 1
    35   15   16 1
    36   15   43 1
    37   15   44 1
    38   16   45 1
    39   16   46 1
    40   17   22 ar
    41   17   18 ar
    42   18   19 ar
    43   18   47 1
    44   19   20 ar
    45   19   48 1
    46   20   21 ar
    47   20   24 1
    48   21   22 ar
    49   21   23 1
    50   22   49 1
    51   24   25 3
@<TRIPOS>MOLECULE
CHEMBL552108__1
   49    51     0     0     0
SMALL
USER_CHARGES

@<TRIPOS>ATOM
      1 C1         -0.0973    1.5241   -0.0233 C.3       1 <0>        -0.1834
      2 C2          0.0354   -0.0001   -0.0376 C.3       1 <0>         0.2411
      3 C3          1.0766   -0.4231    0.9663 C.2       1 <0>         0.1474
      4 N1          0.9042   -0.5471    2.2541 N.2       1 <0>        -0.2659
      5 N2          2.0033   -0.9264    2.8036 N.2       1 <0>        -0.2914
      6 C4          2.9268   -1.0616    1.8912 C.2       1 <0>         0.1544
      7 N3          2.3638   -0.7510    0.6986 N.pl3     1 <0>        -0.4713
      8 C5          3.0152   -0.7639   -0.6135 C.3       1 <0>         0.0672
      9 N4         -1.2525   -0.6056    0.3100 N.pl3     1 <0>        -0.6045
     10 C6         -1.8733   -1.5766   -0.5945 C.3       1 <0>         0.1227
     11 C7         -1.4024   -2.9861   -0.2306 C.3       1 <0>        -0.1072
     12 C8          0.1022   -3.1022   -0.4830 C.3       1 <0>        -0.1170
     13 C9          0.5730   -4.5117   -0.1191 C.3       1 <0>        -0.1163
     14 C10        -0.1691   -5.5356   -0.9804 C.3       1 <0>        -0.1190
     15 C11        -1.6736   -5.4195   -0.7280 C.3       1 <0>        -0.1193
     16 C12        -2.1445   -4.0100   -1.0919 C.3       1 <0>        -0.1118
     17 C13        -1.8864   -0.2584    1.4995 C.ar      1 <0>         0.2520
     18 C14        -3.1578   -0.7525    1.7787 C.ar      1 <0>        -0.1905
     19 C15        -3.7882   -0.4118    2.9534 C.ar      1 <0>        -0.0201
     20 C16        -3.1505    0.4319    3.8684 C.ar      1 <0>        -0.0797
     21 C17        -1.8728    0.9269    3.5852 C.ar      1 <0>         0.0472
     22 C18        -1.2456    0.5766    2.4089 C.ar      1 <0>        -0.1461
     23 Cl1        -1.0760    1.9752    4.7166 Cl        1 <0>        -0.0548
     24 C19        -3.8038    0.7888    5.0917 C.1       1 <0>         0.2580
     25 N5         -4.3220    1.0720    6.0621 N.1       1 <0>        -0.4188
     26 H1          0.8805    1.9755   -0.1915 H         1 <0>         0.0706
     27 H2         -0.7822    1.8366   -0.8115 H         1 <0>         0.0797
     28 H3         -0.4846    1.8460    0.9434 H         1 <0>         0.0877
     29 H4          0.3350   -0.3293   -1.0326 H         1 <0>         0.1059
     30 H5          3.9492   -1.3681    2.0559 H         1 <0>         0.2177
     31 H6          3.4533    0.2144   -0.8113 H         1 <0>         0.0867
     32 H7          3.7989   -1.5215   -0.6226 H         1 <0>         0.0959
     33 H8          2.2782   -0.9942   -1.3829 H         1 <0>         0.0893
     34 H9         -2.9577   -1.5200   -0.4996 H         1 <0>         0.0886
     35 H10        -1.5862   -1.3515   -1.6217 H         1 <0>         0.0792
     36 H11        -1.6101   -3.1781    0.8220 H         1 <0>         0.0781
     37 H12         0.3099   -2.9102   -1.5357 H         1 <0>         0.0558
     38 H13         0.6309   -2.3728    0.1306 H         1 <0>         0.0641
     39 H14         1.6449   -4.5945   -0.2989 H         1 <0>         0.0556
     40 H15         0.3653   -4.7037    0.9336 H         1 <0>         0.0599
     41 H16         0.0387   -5.3436   -2.0330 H         1 <0>         0.0602
     42 H17         0.1664   -6.5398   -0.7211 H         1 <0>         0.0603
     43 H18        -2.2023   -6.1489   -1.3416 H         1 <0>         0.0630
     44 H19        -1.8814   -5.6115    0.3246 H         1 <0>         0.0620
     45 H20        -3.2164   -3.9273   -0.9121 H         1 <0>         0.0651
     46 H21        -1.9368   -3.8180   -2.1446 H         1 <0>         0.0630
     47 H22        -3.6503   -1.4038    1.0718 H         1 <0>         0.1366
     48 H23        -4.7746   -0.7955    3.1685 H         1 <0>         0.1387
     49 H24        -0.2576    0.9543    2.1910 H         1 <0>         0.1635
@<TRIPOS>BOND
     1    1    2 1
     2    1   26 1
     3    1   27 1
     4    1   28 1
     5    2    3 1
     6    2    9 1
     7    2   29 1
     8    3    7 1
     9    3    4 2
    10    4    5 1
    11    5    6 2
    12    6    7 1
    13    6   30 1
    14    7    8 1
    15    8   31 1
    16    8   32 1
    17    8   33 1
    18    9   10 1
    19    9   17 1
    20   10   11 1
    21   10   34 1
    22   10   35 1
    23   11   16 1
    24   11   12 1
    25   11   36 1
    26   12   13 1
    27   12   37 1
    28   12   38 1
    29   13   14 1
    30   13   39 1
    31   13   40 1
    32   14   15 1
    33   14   41 1
    34   14   42 1
    35   15   16 1
    36   15   43 1
    37   15   44 1
    38   16   45 1
    39   16   46 1
    40   17   22 ar
    41   17   18 ar
    42   18   19 ar
    43   18   47 1
    44   19   20 ar
    45   19   48 1
    46   20   21 ar
    47   20   24 1
    48   21   22 ar
    49   21   23 1
    50   22   49 1
    51   24   25 3
@<TRIPOS>MOLECULE
CHEMBL539459
   44    45     0     0     0
SMALL
USER_CHARGES

@<TRIPOS>ATOM
      1 C1          0.3891    1.5927   -0.0220 C.3       1 <0>        -0.1687
      2 C2          0.0232    0.1106   -0.1243 C.3       1 <0>         0.1552
      3 C3          0.5629   -0.6240    1.0758 C.2       1 <0>         0.4951
      4 O1          1.5927   -1.2583    0.9859 O.2       1 <0>        -0.5185
      5 N1         -0.0989   -0.5762    2.2489 N.am      1 <0>        -0.6227
      6 C4          0.4258   -1.2904    3.4155 C.3       1 <0>         0.0847
      7 C5         -1.3428    0.1899    2.3575 C.3       1 <0>         0.0692
      8 N2          0.6056   -0.4532   -1.3446 N.pl3     1 <0>        -0.6434
      9 C6         -0.2493   -1.1451   -2.3123 C.3       1 <0>         0.1779
     10 C7         -0.8798   -0.1362   -3.2373 C.ar      1 <0>        -0.1022
     11 C8         -2.1632    0.3166   -2.9949 C.ar      1 <0>        -0.0964
     12 C9         -2.7416    1.2420   -3.8431 C.ar      1 <0>        -0.1159
     13 C10        -2.0370    1.7154   -4.9345 C.ar      1 <0>        -0.1040
     14 C11        -0.7539    1.2636   -5.1778 C.ar      1 <0>        -0.1112
     15 C12        -0.1722    0.3414   -4.3258 C.ar      1 <0>        -0.0202
     16 Cl1         1.4421   -0.2218   -4.6270 Cl        1 <0>        -0.0590
     17 C13         1.9712   -0.3313   -1.5845 C.ar      1 <0>         0.2342
     18 C14         2.7929   -1.4525   -1.5051 C.ar      1 <0>        -0.0956
     19 C15         4.1435   -1.3367   -1.7415 C.ar      1 <0>        -0.0534
     20 C16         4.6915   -0.0907   -2.0622 C.ar      1 <0>        -0.0335
     21 C17         3.8634    1.0344   -2.1413 C.ar      1 <0>         0.0126
     22 C18         2.5106    0.9092   -1.9086 C.ar      1 <0>        -0.1235
     23 Cl2         4.5376    2.5841   -2.5383 Cl        1 <0>        -0.0548
     24 C19         6.0967    0.0336   -2.3084 C.1       1 <0>         0.2511
     25 N3          7.2115    0.1322   -2.5037 N.1       1 <0>        -0.4040
     26 H1          1.4641    1.6919    0.1288 H         1 <0>         0.0692
     27 H2          0.1027    2.1020   -0.9422 H         1 <0>         0.0766
     28 H3         -0.1387    2.0400    0.8203 H         1 <0>         0.0724
     29 H4         -1.0613    0.0055   -0.1571 H         1 <0>         0.1056
     30 H5          1.0929   -0.6336    3.9738 H         1 <0>         0.0545
     31 H6         -0.4012   -1.5975    4.0557 H         1 <0>         0.0692
     32 H7          0.9759   -2.1714    3.0850 H         1 <0>         0.0768
     33 H8         -2.1884   -0.4539    2.1155 H         1 <0>         0.0588
     34 H9         -1.4511    0.5646    3.3754 H         1 <0>         0.0752
     35 H10        -1.3146    1.0291    1.6625 H         1 <0>         0.0760
     36 H11         0.3519   -1.8447   -2.8932 H         1 <0>         0.0900
     37 H12        -1.0305   -1.6902   -1.7825 H         1 <0>         0.0820
     38 H13        -2.7142   -0.0531   -2.1428 H         1 <0>         0.1288
     39 H14        -3.7444    1.5952   -3.6536 H         1 <0>         0.1285
     40 H15        -2.4895    2.4383   -5.5971 H         1 <0>         0.1309
     41 H16        -0.2037    1.6332   -6.0305 H         1 <0>         0.1326
     42 H17         2.3696   -2.4146   -1.2571 H         1 <0>         0.1381
     43 H18         4.7798   -2.2071   -1.6792 H         1 <0>         0.1406
     44 H19         1.8695    1.7759   -1.9737 H         1 <0>         0.1411
@<TRIPOS>BOND
     1    1    2 1
     2    1   26 1
     3    1   27 1
     4    1   28 1
     5    2    3 1
     6    2    8 1
     7    2   29 1
     8    3    4 2
     9    3    5 am
    10    5    6 1
    11    5    7 1
    12    6   30 1
    13    6   31 1
    14    6   32 1
    15    7   33 1
    16    7   34 1
    17    7   35 1
    18    8    9 1
    19    8   17 1
    20    9   10 1
    21    9   36 1
    22    9   37 1
    23   10   15 ar
    24   10   11 ar
    25   11   12 ar
    26   11   38 1
    27   12   13 ar
    28   12   39 1
    29   13   14 ar
    30   13   40 1
    31   14   15 ar
    32   14   41 1
    33   15   16 1
    34   17   22 ar
    35   17   18 ar
    36   18   19 ar
    37   18   42 1
    38   19   20 ar
    39   19   43 1
    40   20   21 ar
    41   20   24 1
    42   21   22 ar
    43   21   23 1
    44   22   44 1
    45   24   25 3
@<TRIPOS>MOLECULE
CHEMBL539459__1
   44    45     0     0     0
SMALL
USER_CHARGES

@<TRIPOS>ATOM
      1 C1          0.7746    0.7990    0.1291 C.3       1 <0>        -0.1654
      2 C2          0.1793   -0.6091    0.1886 C.3       1 <0>         0.1501
      3 C3          0.5643   -1.2627    1.4908 C.2       1 <0>         0.4952
      4 O1         -0.2265   -1.2959    2.4097 O.2       1 <0>        -0.5183
      5 N1          1.7875   -1.8102    1.6343 N.am      1 <0>        -0.6215
      6 C4          2.1617   -2.4455    2.9002 C.3       1 <0>         0.0847
      7 C5          2.7428   -1.7700    0.5243 C.3       1 <0>         0.0736
      8 N2         -1.2805   -0.5265    0.0966 N.pl3     1 <0>        -0.6456
      9 C6         -1.9787   -1.1375   -1.0372 C.3       1 <0>         0.1771
     10 C7         -2.2359   -0.0918   -2.0914 C.ar      1 <0>        -0.0989
     11 C8         -3.4742    0.5173   -2.1734 C.ar      1 <0>        -0.0904
     12 C9         -3.7103    1.4764   -3.1402 C.ar      1 <0>        -0.1125
     13 C10        -2.7083    1.8273   -4.0259 C.ar      1 <0>        -0.1041
     14 C11        -1.4700    1.2191   -3.9450 C.ar      1 <0>        -0.1114
     15 C12        -1.2312    0.2630   -2.9736 C.ar      1 <0>        -0.0202
     16 Cl1         0.3261   -0.4967   -2.8671 Cl        1 <0>        -0.0717
     17 C13        -2.0040    0.1326    1.0863 C.ar      1 <0>         0.2340
     18 C14        -1.9490    1.5208    1.1785 C.ar      1 <0>        -0.1339
     19 C15        -2.6627    2.1764    2.1554 C.ar      1 <0>        -0.0517
     20 C16        -3.4444    1.4471    3.0569 C.ar      1 <0>        -0.0334
     21 C17        -3.4977    0.0522    2.9618 C.ar      1 <0>         0.0151
     22 C18        -2.7845   -0.5969    1.9770 C.ar      1 <0>        -0.0889
     23 Cl2        -4.4658   -0.8590    4.0781 Cl        1 <0>        -0.0536
     24 C19        -4.1880    2.1262    4.0750 C.1       1 <0>         0.2511
     25 N3         -4.7779    2.6648    4.8827 N.1       1 <0>        -0.4038
     26 H1          1.8610    0.7320    0.0709 H         1 <0>         0.0682
     27 H2          0.3949    1.3171   -0.7515 H         1 <0>         0.0760
     28 H3          0.4922    1.3511    1.0255 H         1 <0>         0.0667
     29 H4          0.5628   -1.2012   -0.6424 H         1 <0>         0.1109
     30 H5          1.8928   -3.5013    2.8703 H         1 <0>         0.0549
     31 H6          3.2368   -2.3485    3.0515 H         1 <0>         0.0695
     32 H7          1.6341   -1.9592    3.7207 H         1 <0>         0.0774
     33 H8          3.3414   -0.8617    0.5929 H         1 <0>         0.0609
     34 H9          3.3964   -2.6407    0.5758 H         1 <0>         0.0756
     35 H10         2.2012   -1.7776   -0.4216 H         1 <0>         0.0697
     36 H11        -1.3631   -1.9330   -1.4571 H         1 <0>         0.0873
     37 H12        -2.9277   -1.5529   -0.6983 H         1 <0>         0.0841
     38 H13        -4.2574    0.2433   -1.4820 H         1 <0>         0.1310
     39 H14        -4.6780    1.9517   -3.2041 H         1 <0>         0.1295
     40 H15        -2.8934    2.5765   -4.7814 H         1 <0>         0.1317
     41 H16        -0.6874    1.4931   -4.6370 H         1 <0>         0.1329
     42 H17        -1.3450    2.0838    0.4825 H         1 <0>         0.1375
     43 H18        -2.6189    3.2532    2.2261 H         1 <0>         0.1405
     44 H19        -2.8282   -1.6732    1.8996 H         1 <0>         0.1403
@<TRIPOS>BOND
     1    1    2 1
     2    1   26 1
     3    1   27 1
     4    1   28 1
     5    2    3 1
     6    2    8 1
     7    2   29 1
     8    3    4 2
     9    3    5 am
    10    5    6 1
    11    5    7 1
    12    6   30 1
    13    6   31 1
    14    6   32 1
    15    7   33 1
    16    7   34 1
    17    7   35 1
    18    8    9 1
    19    8   17 1
    20    9   10 1
    21    9   36 1
    22    9   37 1
    23   10   15 ar
    24   10   11 ar
    25   11   12 ar
    26   11   38 1
    27   12   13 ar
    28   12   39 1
    29   13   14 ar
    30   13   40 1
    31   14   15 ar
    32   14   41 1
    33   15   16 1
    34   17   22 ar
    35   17   18 ar
    36   18   19 ar
    37   18   42 1
    38   19   20 ar
    39   19   43 1
    40   20   21 ar
    41   20   24 1
    42   21   22 ar
    43   21   23 1
    44   22   44 1
    45   24   25 3
@<TRIPOS>MOLECULE
CHEMBL1209179
   33    35     0     0     0
SMALL
USER_CHARGES

@<TRIPOS>ATOM
      1 C1         -1.3304    1.0859    0.1264 C.3       1 <0>         0.0543
      2 N1         -0.5802   -0.1704    0.0536 N.pl3     1 <0>        -0.4122
      3 C2         -0.4383   -0.9560   -1.0644 C.2       1 <0>         0.0625
      4 C3          0.3364   -2.0477   -0.7251 C.2       1 <0>        -0.1108
      5 C4          0.6701   -1.9217    0.6225 C.2       1 <0>        -0.1682
      6 C5          0.1009   -0.7542    1.0856 C.2       1 <0>         0.0793
      7 C6          0.2055   -0.2275    2.4599 C.ar      1 <0>         0.0155
      8 C7         -0.0145    1.1321    2.7047 C.ar      1 <0>        -0.1454
      9 C8          0.0846    1.6173    3.9767 C.ar      1 <0>        -0.0515
     10 C9          0.4045    0.7539    5.0322 C.ar      1 <0>        -0.1692
     11 C10         0.6211   -0.6067    4.7921 C.ar      1 <0>        -0.0205
     12 C11         0.5183   -1.0888    3.5144 C.ar      1 <0>        -0.1118
     13 C12         0.9533   -1.5606    5.9071 C.3       1 <0>        -0.0911
     14 C13         1.5499   -0.8259    7.1044 C.3       1 <0>        -0.1150
     15 C14         0.5966    0.2944    7.5406 C.3       1 <0>        -0.1658
     16 C15         0.5148    1.2887    6.4011 C.2       1 <0>         0.3978
     17 O1          0.5389    2.4836    6.6080 O.2       1 <0>        -0.4514
     18 C16        -0.9964   -0.6895   -2.3560 C.1       1 <0>         0.2753
     19 N2         -1.4390   -0.4780   -3.3806 N.1       1 <0>        -0.4000
     20 H1         -0.6496    1.9246   -0.0191 H         1 <0>         0.0873
     21 H2         -2.0940    1.0986   -0.6512 H         1 <0>         0.0891
     22 H3         -1.8057    1.1691    1.1038 H         1 <0>         0.0992
     23 H4          0.6297   -2.8521   -1.3833 H         1 <0>         0.1558
     24 H5          1.2697   -2.6111    1.1982 H         1 <0>         0.1548
     25 H6         -0.2618    1.7961    1.8895 H         1 <0>         0.1328
     26 H7         -0.0831    2.6667    4.1692 H         1 <0>         0.1367
     27 H8          0.6839   -2.1383    3.3206 H         1 <0>         0.1386
     28 H9          0.0443   -2.0743    6.2202 H         1 <0>         0.0897
     29 H10         1.6716   -2.2964    5.5455 H         1 <0>         0.0882
     30 H11         1.6893   -1.5260    7.9281 H         1 <0>         0.0843
     31 H12         2.5120   -0.3964    6.8250 H         1 <0>         0.0715
     32 H13        -0.3916   -0.1182    7.7439 H         1 <0>         0.1039
     33 H14         0.9851    0.7849    8.4331 H         1 <0>         0.0961
@<TRIPOS>BOND
     1    1    2 1
     2    1   20 1
     3    1   21 1
     4    1   22 1
     5    2    6 1
     6    2    3 1
     7    3    4 2
     8    3   18 1
     9    4    5 1
    10    4   23 1
    11    5    6 2
    12    5   24 1
    13    6    7 1
    14    7   12 ar
    15    7    8 ar
    16    8    9 ar
    17    8   25 1
    18    9   10 ar
    19    9   26 1
    20   10   16 1
    21   10   11 ar
    22   11   12 ar
    23   11   13 1
    24   12   27 1
    25   13   14 1
    26   13   28 1
    27   13   29 1
    28   14   15 1
    29   14   30 1
    30   14   31 1
    31   15   16 1
    32   15   32 1
    33   15   33 1
    34   16   17 2
    35   18   19 3
@<TRIPOS>MOLECULE
CHEMBL474189
   46    50     0     0     0
SMALL
USER_CHARGES

@<TRIPOS>ATOM
      1 C1         -0.0187    1.5258    0.0104 C.3       1 <0>        -0.1350
      2 C2          0.0021   -0.0041    0.0020 C.3       1 <0>         0.0234
      3 C3         -1.4106   -0.6295    0.0211 C.3       1 <0>        -0.1012
      4 C4         -1.3418   -2.1550    0.0237 C.3       1 <0>        -0.0603
      5 C5          0.1217   -2.6505    0.0065 C.3       1 <0>         0.0212
      6 C6          0.7838   -1.9905    1.2057 C.ar      1 <0>        -0.0735
      7 C7          0.7210   -0.5976    1.2033 C.ar      1 <0>        -0.0828
      8 C8          1.2589    0.1270    2.2276 C.ar      1 <0>        -0.1105
      9 C9          1.8903   -0.5473    3.2652 C.ar      1 <0>        -0.1205
     10 C10         1.9708   -1.9272    3.2572 C.ar      1 <0>        -0.1207
     11 C11         1.4004   -2.6595    2.2236 C.ar      1 <0>        -0.0769
     12 C12         0.7549   -1.9957   -1.2108 C.ar      1 <0>        -0.0791
     13 C13         0.7079   -0.5844   -1.2132 C.ar      1 <0>        -0.0728
     14 C14         1.2349    0.1517   -2.2351 C.ar      1 <0>        -0.1046
     15 C15         1.8550   -0.5109   -3.2869 C.ar      1 <0>        -0.1184
     16 C16         1.9348   -1.8908   -3.2955 C.ar      1 <0>        -0.1210
     17 C17         1.3476   -2.6693   -2.2399 C.ar      1 <0>        -0.1042
     18 C18        -2.0669   -2.6914   -1.2122 C.3       1 <0>        -0.1460
     19 C19        -2.0253   -2.6778    1.2608 C.2       1 <0>         0.5169
     20 O1         -1.4037   -3.3440    2.0614 O.2       1 <0>        -0.4500
     21 N1         -3.3272   -2.4052    1.4776 N.am      1 <0>        -0.6237
     22 C20        -3.9577   -2.8874    2.6187 C.2       1 <0>         0.2753
     23 N2         -3.4472   -3.6134    3.5897 N.2       1 <0>        -0.5210
     24 C21        -4.1845   -3.9957    4.6159 C.2       1 <0>         0.0635
     25 C22        -5.4833   -3.6068    4.6203 C.2       1 <0>        -0.2450
     26 S1         -5.5576   -2.6781    3.0972 S.3       1 <0>         0.1011
     27 H1          1.0039    1.9031    0.0027 H         1 <0>         0.0677
     28 H2         -0.5459    1.8868   -0.8726 H         1 <0>         0.0669
     29 H3         -0.5289    1.8773    0.9072 H         1 <0>         0.0652
     30 H4         -1.9372   -0.2945    0.9148 H         1 <0>         0.0732
     31 H5         -1.9595   -0.2984   -0.8605 H         1 <0>         0.0863
     32 H6          0.2053   -3.7373    0.0161 H         1 <0>         0.1094
     33 H7          1.1952    1.2051    2.2311 H         1 <0>         0.1234
     34 H8          2.3214    0.0103    4.0835 H         1 <0>         0.1199
     35 H9          2.4646   -2.4404    4.0691 H         1 <0>         0.1202
     36 H10         1.4470   -3.7385    2.2234 H         1 <0>         0.1233
     37 H11         1.1705    1.2298   -2.2262 H         1 <0>         0.1269
     38 H12         2.2773    0.0559   -4.1035 H         1 <0>         0.1232
     39 H13         2.4185   -2.3950   -4.1190 H         1 <0>         0.1226
     40 H14         1.3949   -3.7483   -2.2356 H         1 <0>         0.1294
     41 H15        -1.5874   -2.3044   -2.1113 H         1 <0>         0.0798
     42 H16        -2.0212   -3.7804   -1.2161 H         1 <0>         0.0672
     43 H17        -3.1087   -2.3715   -1.1895 H         1 <0>         0.0628
     44 H18        -3.8243   -1.8725    0.8373 H         1 <0>         0.4237
     45 H19        -3.7716   -4.5920    5.4160 H         1 <0>         0.1755
     46 H20        -6.2583   -3.8018    5.3467 H         1 <0>         0.1992
@<TRIPOS>BOND
     1    1    2 1
     2    1   27 1
     3    1   28 1
     4    1   29 1
     5    2    7 1
     6    2   13 1
     7    2    3 1
     8    3    4 1
     9    3   30 1
    10    3   31 1
    11    4    5 1
    12    4   18 1
    13    4   19 1
    14    5    6 1
    15    5   12 1
    16    5   32 1
    17    6   11 ar
    18    6    7 ar
    19    7    8 ar
    20    8    9 ar
    21    8   33 1
    22    9   10 ar
    23    9   34 1
    24   10   11 ar
    25   10   35 1
    26   11   36 1
    27   12   17 ar
    28   12   13 ar
    29   13   14 ar
    30   14   15 ar
    31   14   37 1
    32   15   16 ar
    33   15   38 1
    34   16   17 ar
    35   16   39 1
    36   17   40 1
    37   18   41 1
    38   18   42 1
    39   18   43 1
    40   19   20 2
    41   19   21 am
    42   21   22 1
    43   21   44 1
    44   22   26 1
    45   22   23 2
    46   23   24 1
    47   24   25 2
    48   24   45 1
    49   25   26 1
    50   25   46 1
@<TRIPOS>MOLECULE
CHEMBL474189__1
   46    50     0     0     0
SMALL
USER_CHARGES

@<TRIPOS>ATOM
      1 C1         -0.0187    1.5258    0.0104 C.3       1 <0>        -0.1350
      2 C2          0.0021   -0.0041    0.0020 C.3       1 <0>         0.0233
      3 C3         -1.4106   -0.6295    0.0211 C.3       1 <0>        -0.1013
      4 C4         -1.3418   -2.1550    0.0237 C.3       1 <0>        -0.0603
      5 C5          0.1217   -2.6505    0.0065 C.3       1 <0>         0.0217
      6 C6          0.7838   -1.9905    1.2057 C.ar      1 <0>        -0.0790
      7 C7          0.7210   -0.5976    1.2033 C.ar      1 <0>        -0.0721
      8 C8          1.2589    0.1270    2.2276 C.ar      1 <0>        -0.1057
      9 C9          1.8903   -0.5473    3.2652 C.ar      1 <0>        -0.1183
     10 C10         1.9708   -1.9272    3.2572 C.ar      1 <0>        -0.1198
     11 C11         1.4004   -2.6595    2.2236 C.ar      1 <0>        -0.1028
     12 C12         0.7549   -1.9957   -1.2108 C.ar      1 <0>        -0.0757
     13 C13         0.7079   -0.5844   -1.2132 C.ar      1 <0>        -0.0824
     14 C14         1.2349    0.1517   -2.2351 C.ar      1 <0>        -0.1094
     15 C15         1.8550   -0.5109   -3.2869 C.ar      1 <0>        -0.1208
     16 C16         1.9348   -1.8908   -3.2955 C.ar      1 <0>        -0.1221
     17 C17         1.3476   -2.6693   -2.2399 C.ar      1 <0>        -0.0770
     18 C18        -2.0357   -2.6858    1.2797 C.3       1 <0>        -0.1461
     19 C19        -2.0560   -2.6833   -1.1936 C.2       1 <0>         0.5171
     20 O1         -1.4547   -3.3531   -2.0065 O.2       1 <0>        -0.4500
     21 N1         -3.3630   -2.4116   -1.3789 N.am      1 <0>        -0.6238
     22 C20        -4.0218   -2.8989   -2.5017 C.2       1 <0>         0.2755
     23 N2         -3.5386   -3.6388   -3.4760 N.2       1 <0>        -0.5210
     24 C21        -4.3009   -4.0241   -4.4827 C.2       1 <0>         0.0635
     25 C22        -5.5959   -3.6232   -4.4635 C.2       1 <0>        -0.2450
     26 S1         -5.6333   -2.6916   -2.9408 S.3       1 <0>         0.1008
     27 H1          1.0039    1.9031    0.0027 H         1 <0>         0.0677
     28 H2         -0.5459    1.8868   -0.8726 H         1 <0>         0.0655
     29 H3         -0.5289    1.8773    0.9072 H         1 <0>         0.0668
     30 H4         -1.9372   -0.2945    0.9148 H         1 <0>         0.0865
     31 H5         -1.9595   -0.2984   -0.8605 H         1 <0>         0.0730
     32 H6          0.2053   -3.7373    0.0161 H         1 <0>         0.1090
     33 H7          1.1952    1.2051    2.2311 H         1 <0>         0.1263
     34 H8          2.3214    0.0103    4.0835 H         1 <0>         0.1223
     35 H9          2.4646   -2.4404    4.0691 H         1 <0>         0.1226
     36 H10         1.4470   -3.7385    2.2234 H         1 <0>         0.1253
     37 H11         1.1705    1.2298   -2.2262 H         1 <0>         0.1242
     38 H12         2.2773    0.0559   -4.1035 H         1 <0>         0.1208
     39 H13         2.4185   -2.3950   -4.1190 H         1 <0>         0.1203
     40 H14         1.3949   -3.7483   -2.2356 H         1 <0>         0.1273
     41 H15        -3.0777   -2.3660    1.2818 H         1 <0>         0.0628
     42 H16        -1.9899   -3.7748    1.2874 H         1 <0>         0.0673
     43 H17        -1.5339   -2.2948    2.1648 H         1 <0>         0.0796
     44 H18        -3.8440   -1.8760   -0.7287 H         1 <0>         0.4237
     45 H19        -3.9102   -4.6313   -5.2858 H         1 <0>         0.1756
     46 H20        -6.3875   -3.8171   -5.1721 H         1 <0>         0.1992
@<TRIPOS>BOND
     1    1    2 1
     2    1   27 1
     3    1   28 1
     4    1   29 1
     5    2    7 1
     6    2   13 1
     7    2    3 1
     8    3    4 1
     9    3   30 1
    10    3   31 1
    11    4    5 1
    12    4   18 1
    13    4   19 1
    14    5    6 1
    15    5   12 1
    16    5   32 1
    17    6   11 ar
    18    6    7 ar
    19    7    8 ar
    20    8    9 ar
    21    8   33 1
    22    9   10 ar
    23    9   34 1
    24   10   11 ar
    25   10   35 1
    26   11   36 1
    27   12   17 ar
    28   12   13 ar
    29   13   14 ar
    30   14   15 ar
    31   14   37 1
    32   15   16 ar
    33   15   38 1
    34   16   17 ar
    35   16   39 1
    36   17   40 1
    37   18   41 1
    38   18   42 1
    39   18   43 1
    40   19   20 2
    41   19   21 am
    42   21   22 1
    43   21   44 1
    44   22   26 1
    45   22   23 2
    46   23   24 1
    47   24   25 2
    48   24   45 1
    49   25   26 1
    50   25   46 1
@<TRIPOS>MOLECULE
CHEMBL163425
   40    43     0     0     0
SMALL
USER_CHARGES

@<TRIPOS>ATOM
      1 C1         -0.0178    1.4608    0.0101 C.3       1 <0>         0.0593
      2 N1          0.0021   -0.0041    0.0020 N.am      1 <0>        -0.5159
      3 C2         -1.1865   -0.7060    0.0038 C.ar      1 <0>         0.2444
      4 C3         -2.4025   -0.0400    0.0421 C.ar      1 <0>        -0.2311
      5 C4         -3.5909   -0.7617    0.0344 C.ar      1 <0>         0.2592
      6 C5         -3.5530   -2.1567   -0.0373 C.ar      1 <0>        -0.1724
      7 C6         -2.3700   -2.8279   -0.0493 C.ar      1 <0>        -0.0049
      8 C7         -1.1633   -2.1146   -0.0227 C.ar      1 <0>        -0.1643
      9 C8          0.0829   -2.7912   -0.0238 C.2       1 <0>        -0.0595
     10 C9          1.2290   -2.0660   -0.0159 C.2       1 <0>        -0.1698
     11 C10         1.1792   -0.6568   -0.0127 C.2       1 <0>         0.5370
     12 O1          2.2185   -0.0196   -0.0189 O.2       1 <0>        -0.5240
     13 C11         0.1333   -4.2973   -0.0342 C.3       1 <0>         0.5063
     14 F1          1.4671   -4.7194   -0.0333 F         1 <0>        -0.1685
     15 F2         -0.5136   -4.7934    1.1027 F         1 <0>        -0.1676
     16 F3         -0.5070   -4.7774   -1.1818 F         1 <0>        -0.1678
     17 C12        -4.9886   -2.6593   -0.1334 C.3       1 <0>        -0.0445
     18 H1         -5.1059   -3.3784   -0.9441 H         1 <0>         0.1007
     19 C13        -5.3421   -3.2832    1.2164 C.3       1 <0>        -0.1085
     20 C14        -6.8569   -3.4522    1.3291 C.3       1 <0>        -0.1216
     21 C15        -7.4949   -2.0644    1.3513 C.3       1 <0>        -0.1164
     22 C16        -7.1856   -1.3164    0.0704 C.3       1 <0>        -0.1182
     23 C17        -5.7661   -1.3778   -0.4115 C.3       1 <0>         0.1556
     24 H2         -5.7736   -1.2478   -1.4937 H         1 <0>         0.0611
     25 N2         -4.9132   -0.3074    0.1111 N.pl3     1 <0>        -0.7317
     26 H3          1.0048    1.8381    0.0023 H         1 <0>         0.1045
     27 H4         -0.5450    1.8219   -0.8730 H         1 <0>         0.0790
     28 H5         -0.5280    1.8123    0.9069 H         1 <0>         0.0787
     29 H6         -2.4263    1.0391    0.0783 H         1 <0>         0.1362
     30 H7         -2.3602   -3.9074   -0.0789 H         1 <0>         0.1345
     31 H8          2.1842   -2.5701   -0.0155 H         1 <0>         0.1683
     32 H9         -4.8615   -4.2578    1.3020 H         1 <0>         0.0691
     33 H10        -4.9893   -2.6349    2.0186 H         1 <0>         0.0658
     34 H11        -7.2286   -4.0136    0.4719 H         1 <0>         0.0668
     35 H12        -7.0998   -3.9828    2.2497 H         1 <0>         0.0678
     36 H13        -8.5750   -2.1668    1.4560 H         1 <0>         0.0680
     37 H14        -7.1036   -1.5023    2.1993 H         1 <0>         0.0610
     38 H15        -7.8179   -1.7196   -0.7206 H         1 <0>         0.0759
     39 H16        -7.4542   -0.2698    0.2138 H         1 <0>         0.0693
     40 H17        -5.2086    0.5534    0.4467 H         1 <0>         0.4182
@<TRIPOS>BOND
     1    1    2 1
     2    1   26 1
     3    1   27 1
     4    1   28 1
     5    2   11 am
     6    2    3 1
     7    3    8 ar
     8    3    4 ar
     9    4    5 ar
    10    4   29 1
    11    5   25 1
    12    5    6 ar
    13    6    7 ar
    14    6   17 1
    15    7    8 ar
    16    7   30 1
    17    8    9 1
    18    9   10 2
    19    9   13 1
    20   10   11 1
    21   10   31 1
    22   11   12 2
    23   13   14 1
    24   13   15 1
    25   13   16 1
    26   17   18 1
    27   17   23 1
    28   17   19 1
    29   19   20 1
    30   19   32 1
    31   19   33 1
    32   20   21 1
    33   20   34 1
    34   20   35 1
    35   21   22 1
    36   21   36 1
    37   21   37 1
    38   22   23 1
    39   22   38 1
    40   22   39 1
    41   23   24 1
    42   23   25 1
    43   25   40 1
@<TRIPOS>MOLECULE
CHEMBL335992
   36    38     0     0     0
SMALL
USER_CHARGES

@<TRIPOS>ATOM
      1 C1         -0.0184    1.5028    0.0103 C.3       1 <0>        -0.1162
      2 C2          0.0021   -0.0041    0.0020 C.2       1 <0>        -0.0620
      3 C3          0.0057   -0.6644   -1.1489 C.2       1 <0>        -0.1758
      4 C4          0.0117   -2.1694   -1.1826 C.3       1 <0>         0.2147
      5 N1          0.6720   -2.6954    0.0191 N.pl3     1 <0>        -0.7426
      6 C5          0.3651   -2.1145    1.2519 C.ar      1 <0>         0.2192
      7 C6          0.0243   -0.7528    1.2746 C.ar      1 <0>        -0.1121
      8 C7         -0.2870   -0.1395    2.4813 C.ar      1 <0>        -0.0571
      9 C8         -0.2496   -0.8831    3.6581 C.ar      1 <0>        -0.0773
     10 C9          0.0987   -2.2329    3.6244 C.ar      1 <0>        -0.0661
     11 C10         0.3958   -2.8447    2.4260 C.ar      1 <0>        -0.1737
     12 C11        -0.5811   -0.2366    4.9528 C.2       1 <0>        -0.0872
     13 C12        -0.5451   -0.9563    6.1359 C.2       1 <0>        -0.0668
     14 C13        -0.8725   -0.2521    7.2800 C.2       1 <0>        -0.1596
     15 S1         -1.2122    1.3756    6.6396 S.3       1 <0>         0.2735
     16 C14        -0.9262    1.0936    5.0088 C.2       1 <0>        -0.2326
     17 C15        -0.9251   -0.7135    8.6347 C.1       1 <0>         0.2931
     18 N2         -0.9668   -1.0795    9.7093 N.1       1 <0>        -0.3964
     19 C16         0.7649   -2.6466   -2.4260 C.3       1 <0>        -0.1528
     20 C17        -1.4289   -2.6820   -1.2361 C.3       1 <0>        -0.1581
     21 H1          1.0042    1.8801    0.0026 H         1 <0>         0.0710
     22 H2         -0.5455    1.8639   -0.8728 H         1 <0>         0.0678
     23 H3         -0.5286    1.8543    0.9071 H         1 <0>         0.0665
     24 H4          0.0047   -0.1127   -2.0773 H         1 <0>         0.1224
     25 H5          1.3051   -3.4278   -0.0416 H         1 <0>         0.4024
     26 H6         -0.5557    0.9062    2.5068 H         1 <0>         0.1264
     27 H7          0.1274   -2.8034    4.5410 H         1 <0>         0.1253
     28 H8          0.6647   -3.8905    2.4060 H         1 <0>         0.1255
     29 H9         -0.2783   -2.0025    6.1629 H         1 <0>         0.1517
     30 H10        -0.9988    1.7955    4.1911 H         1 <0>         0.1937
     31 H11         1.7905   -2.2791   -2.3929 H         1 <0>         0.0630
     32 H12         0.7701   -3.7363   -2.4518 H         1 <0>         0.0633
     33 H13         0.2706   -2.2643   -3.3192 H         1 <0>         0.0742
     34 H14        -1.9175   -2.2997   -2.1323 H         1 <0>         0.0657
     35 H15        -1.4261   -3.7718   -1.2606 H         1 <0>         0.0597
     36 H16        -1.9693   -2.3398   -0.3536 H         1 <0>         0.0571
@<TRIPOS>BOND
     1    1    2 1
     2    1   21 1
     3    1   22 1
     4    1   23 1
     5    2    7 1
     6    2    3 2
     7    3    4 1
     8    3   24 1
     9    4    5 1
    10    4   19 1
    11    4   20 1
    12    5    6 1
    13    5   25 1
    14    6   11 ar
    15    6    7 ar
    16    7    8 ar
    17    8    9 ar
    18    8   26 1
    19    9   10 ar
    20    9   12 1
    21   10   11 ar
    22   10   27 1
    23   11   28 1
    24   12   16 2
    25   12   13 1
    26   13   14 2
    27   13   29 1
    28   14   15 1
    29   14   17 1
    30   15   16 1
    31   16   30 1
    32   17   18 3
    33   19   31 1
    34   19   32 1
    35   19   33 1
    36   20   34 1
    37   20   35 1
    38   20   36 1
@<TRIPOS>MOLECULE
CHEMBL1085008
   44    45     0     0     0
SMALL
USER_CHARGES

@<TRIPOS>ATOM
      1 C1         -0.0187    1.5258    0.0104 C.3       1 <0>        -0.1444
      2 C2          0.0021   -0.0041    0.0020 C.3       1 <0>        -0.0503
      3 C3          0.7074   -0.4901   -1.2379 C.2       1 <0>        -0.1565
      4 C4          0.1237   -0.8413   -2.4018 C.2       1 <0>         0.0032
      5 N1          1.0999   -1.2233   -3.2728 N.pl3     1 <0>        -0.4332
      6 C5          2.3129   -1.1112   -2.6500 C.2       1 <0>         0.0345
      7 C6          2.1004   -0.6551   -1.3954 C.2       1 <0>        -0.0006
      8 O1          3.0538   -0.4042   -0.4559 O.3       1 <0>        -0.2187
      9 C7          3.4109   -1.4158    0.3754 C.ar      1 <0>         0.1560
     10 C8          2.8104   -2.6629    0.2473 C.ar      1 <0>        -0.1949
     11 C9          3.1696   -3.6919    1.0891 C.ar      1 <0>        -0.0312
     12 C10         4.1396   -3.4811    2.0731 C.ar      1 <0>        -0.0716
     13 C11         4.7412   -2.2257    2.1982 C.ar      1 <0>        -0.0306
     14 C12         4.3801   -1.2035    1.3490 C.ar      1 <0>        -0.1520
     15 C13         4.5156   -4.5481    2.9508 C.1       1 <0>         0.2562
     16 N2          4.8140   -5.3947    3.6472 N.1       1 <0>        -0.4216
     17 C14         3.6532   -1.4336   -3.2589 C.3       1 <0>        -0.0581
     18 C15         4.2213   -0.1830   -3.9328 C.3       1 <0>        -0.1468
     19 C16         0.8857   -1.6793   -4.6485 C.3       1 <0>         0.1080
     20 C17         0.8210   -3.2077   -4.6749 C.3       1 <0>         0.0460
     21 O2          0.6121   -3.6526   -6.0167 O.3       1 <0>        -0.3883
     22 C18         0.5360   -5.0730   -6.1529 C.3       1 <0>         0.0325
     23 H1          1.0039    1.9031    0.0027 H         1 <0>         0.0568
     24 H2         -0.5459    1.8868   -0.8726 H         1 <0>         0.0525
     25 H3         -0.5289    1.8773    0.9072 H         1 <0>         0.0545
     26 H4          0.5293   -0.3651    0.8851 H         1 <0>         0.0669
     27 H5         -1.0205   -0.3814    0.0098 H         1 <0>         0.0676
     28 H6         -0.9362   -0.8234   -2.6082 H         1 <0>         0.1701
     29 H7          2.0610   -2.8250   -0.5133 H         1 <0>         0.1376
     30 H8          2.7021   -4.6604    0.9894 H         1 <0>         0.1330
     31 H9          5.4909   -2.0586    2.9575 H         1 <0>         0.1403
     32 H10         4.8474   -0.2343    1.4424 H         1 <0>         0.1428
     33 H11         4.3362   -1.7675   -2.4779 H         1 <0>         0.0862
     34 H12         3.5348   -2.2238   -4.0003 H         1 <0>         0.0713
     35 H13         3.5382    0.1510   -4.7139 H         1 <0>         0.0527
     36 H14         4.3396    0.6073   -3.1914 H         1 <0>         0.0638
     37 H15         5.1907   -0.4161   -4.3732 H         1 <0>         0.0634
     38 H16        -0.0513   -1.2694   -5.0254 H         1 <0>         0.1046
     39 H17         1.7095   -1.3397   -5.2763 H         1 <0>         0.1006
     40 H18         1.7581   -3.6176   -4.2980 H         1 <0>         0.0573
     41 H19        -0.0027   -3.5474   -4.0470 H         1 <0>         0.0585
     42 H20         0.3765   -5.3295   -7.2002 H         1 <0>         0.0924
     43 H21         1.4671   -5.5216   -5.8067 H         1 <0>         0.0448
     44 H22        -0.2937   -5.4514   -5.5558 H         1 <0>         0.0448
@<TRIPOS>BOND
     1    1    2 1
     2    1   23 1
     3    1   24 1
     4    1   25 1
     5    2    3 1
     6    2   26 1
     7    2   27 1
     8    3    7 1
     9    3    4 2
    10    4    5 1
    11    4   28 1
    12    5    6 1
    13    5   19 1
    14    6    7 2
    15    6   17 1
    16    7    8 1
    17    8    9 1
    18    9   14 ar
    19    9   10 ar
    20   10   11 ar
    21   10   29 1
    22   11   12 ar
    23   11   30 1
    24   12   13 ar
    25   12   15 1
    26   13   14 ar
    27   13   31 1
    28   14   32 1
    29   15   16 3
    30   17   18 1
    31   17   33 1
    32   17   34 1
    33   18   35 1
    34   18   36 1
    35   18   37 1
    36   19   20 1
    37   19   38 1
    38   19   39 1
    39   20   21 1
    40   20   40 1
    41   20   41 1
    42   21   22 1
    43   22   42 1
    44   22   43 1
    45   22   44 1
@<TRIPOS>MOLECULE
CHEMBL1163902
   60    63     0     0     0
SMALL
USER_CHARGES

@<TRIPOS>ATOM
      1 C1         -0.0167    1.3775    0.0096 C.ar      1 <0>        -0.0845
      2 C2          1.1709    2.0856    0.0021 C.ar      1 <0>        -0.1196
      3 C3          2.3781    1.4125   -0.0130 C.ar      1 <0>        -0.0819
      4 C4          2.3993    0.0305   -0.0211 C.ar      1 <0>        -0.1349
      5 C5          1.2109   -0.6795   -0.0135 C.ar      1 <0>         0.1014
      6 C6          0.0021   -0.0041    0.0020 C.ar      1 <0>        -0.1484
      7 F1          1.2304   -2.0304   -0.0218 F         1 <0>        -0.1372
      8 C7          3.6716    2.1857   -0.0212 C.3       1 <0>         0.1990
      9 C8          4.2243    2.2400   -1.4469 C.3       1 <0>        -0.1735
     10 C9          5.4508    3.1151   -1.4772 C.2       1 <0>         0.3953
     11 O1          5.8440    3.6433   -0.4590 O.2       1 <0>        -0.4373
     12 C10         6.1713    3.3287   -2.7425 C.ar      1 <0>        -0.1794
     13 C11         5.7175    2.7259   -3.9201 C.ar      1 <0>        -0.0702
     14 C12         6.3978    2.9313   -5.1017 C.ar      1 <0>        -0.1305
     15 C13         7.5268    3.7314   -5.1244 C.ar      1 <0>        -0.0378
     16 C14         7.9824    4.3311   -3.9632 C.ar      1 <0>        -0.1269
     17 C15         7.3099    4.1401   -2.7747 C.ar      1 <0>        -0.0552
     18 C16         8.2643    3.9506   -6.4202 C.3       1 <0>        -0.0541
     19 C17         9.7022    3.4467   -6.2802 C.3       1 <0>        -0.1110
     20 C18        10.4509    3.6692   -7.5959 C.3       1 <0>        -0.1204
     21 C19        10.4639    5.1624   -7.9291 C.3       1 <0>        -0.1221
     22 C20         9.0261    5.6662   -8.0691 C.3       1 <0>        -0.1204
     23 C21         8.2773    5.4438   -6.7535 C.3       1 <0>        -0.1110
     24 N1          4.6420    1.5234    0.8539 N.pl3     1 <0>        -0.7150
     25 C22         4.6447    1.7933    2.2243 C.ar      1 <0>         0.2782
     26 C23         3.7242    2.6852    2.7599 C.ar      1 <0>        -0.1927
     27 C24         3.7294    2.9494    4.1155 C.ar      1 <0>        -0.0040
     28 C25         4.6495    2.3273    4.9393 C.ar      1 <0>        -0.1118
     29 C26         5.5672    1.4390    4.4093 C.ar      1 <0>        -0.0045
     30 C27         5.5642    1.1661    3.0555 C.ar      1 <0>        -0.1942
     31 N2          4.6524    2.6134    6.3914 N.pl3     1 <0>         0.0454
     32 O2          3.8509    3.3901    6.8561 O.2       1 <0>        -0.1743
     33 O3          5.4562    2.0702    7.1129 O.3       1 <0>        -0.1746
     34 H1         -0.9592    1.9045    0.0259 H         1 <0>         0.1373
     35 H2          1.1553    3.1655    0.0076 H         1 <0>         0.1324
     36 H3          3.3426   -0.4952   -0.0336 H         1 <0>         0.1321
     37 H4         -0.9257   -0.5570    0.0082 H         1 <0>         0.1376
     38 H5          3.4913    3.1991    0.3374 H         1 <0>         0.1057
     39 H6          4.4877    1.2338   -1.7729 H         1 <0>         0.1096
     40 H7          3.4675    2.6518   -2.1145 H         1 <0>         0.1216
     41 H8          4.8368    2.1010   -3.9039 H         1 <0>         0.1310
     42 H9          6.0489    2.4662   -6.0119 H         1 <0>         0.1292
     43 H10         8.8644    4.9538   -3.9889 H         1 <0>         0.1288
     44 H11         7.6640    4.6123   -1.8703 H         1 <0>         0.1329
     45 H12         7.7641    3.4042   -7.2199 H         1 <0>         0.0816
     46 H13        10.2024    3.9931   -5.4806 H         1 <0>         0.0653
     47 H14         9.6929    2.3829   -6.0429 H         1 <0>         0.0638
     48 H15        11.4753    3.3102   -7.4961 H         1 <0>         0.0642
     49 H16         9.9507    3.1228   -8.3955 H         1 <0>         0.0629
     50 H17        10.9641    5.7087   -7.1295 H         1 <0>         0.0620
     51 H18        10.9973    5.3209   -8.8663 H         1 <0>         0.0627
     52 H19         9.0353    6.7300   -8.3065 H         1 <0>         0.0643
     53 H20         8.5259    5.1199   -8.8687 H         1 <0>         0.0629
     54 H21         7.2530    5.8027   -6.8532 H         1 <0>         0.0641
     55 H22         8.7776    5.9901   -5.9539 H         1 <0>         0.0653
     56 H23         5.2826    0.8974    0.4816 H         1 <0>         0.4055
     57 H24         3.0056    3.1716    2.1171 H         1 <0>         0.1414
     58 H25         3.0143    3.6430    4.5325 H         1 <0>         0.1506
     59 H26         6.2847    0.9551    5.0554 H         1 <0>         0.1512
     60 H27         6.2785    0.4691    2.6428 H         1 <0>         0.1423
@<TRIPOS>BOND
     1    1    6 ar
     2    1    2 ar
     3    1   34 1
     4    2    3 ar
     5    2   35 1
     6    3    4 ar
     7    3    8 1
     8    4    5 ar
     9    4   36 1
    10    5    6 ar
    11    5    7 1
    12    6   37 1
    13    8    9 1
    14    8   24 1
    15    8   38 1
    16    9   10 1
    17    9   39 1
    18    9   40 1
    19   10   11 2
    20   10   12 1
    21   12   17 ar
    22   12   13 ar
    23   13   14 ar
    24   13   41 1
    25   14   15 ar
    26   14   42 1
    27   15   16 ar
    28   15   18 1
    29   16   17 ar
    30   16   43 1
    31   17   44 1
    32   18   23 1
    33   18   19 1
    34   18   45 1
    35   19   20 1
    36   19   46 1
    37   19   47 1
    38   20   21 1
    39   20   48 1
    40   20   49 1
    41   21   22 1
    42   21   50 1
    43   21   51 1
    44   22   23 1
    45   22   52 1
    46   22   53 1
    47   23   54 1
    48   23   55 1
    49   24   25 1
    50   24   56 1
    51   25   30 ar
    52   25   26 ar
    53   26   27 ar
    54   26   57 1
    55   27   28 ar
    56   27   58 1
    57   28   29 ar
    58   28   31 1
    59   29   30 ar
    60   29   59 1
    61   30   60 1
    62   31   32 2
    63   31   33 1
@<TRIPOS>MOLECULE
CHEMBL1163902__1
   60    63     0     0     0
SMALL
USER_CHARGES

@<TRIPOS>ATOM
      1 C1         -0.0167    1.3775    0.0096 C.ar      1 <0>        -0.0845
      2 C2          1.1709    2.0856    0.0021 C.ar      1 <0>        -0.1195
      3 C3          2.3781    1.4125   -0.0130 C.ar      1 <0>        -0.0819
      4 C4          2.3993    0.0305   -0.0211 C.ar      1 <0>        -0.1349
      5 C5          1.2109   -0.6795   -0.0135 C.ar      1 <0>         0.1014
      6 C6          0.0021   -0.0041    0.0020 C.ar      1 <0>        -0.1484
      7 F1          1.2304   -2.0304   -0.0218 F         1 <0>        -0.1372
      8 C7          3.6716    2.1857   -0.0212 C.3       1 <0>         0.1990
      9 C8          4.2513    2.2248    1.3941 C.3       1 <0>        -0.1735
     10 C9          5.4783    3.0997    1.4104 C.2       1 <0>         0.3953
     11 O1          5.8521    3.6387    0.3906 O.2       1 <0>        -0.4373
     12 C10         6.2228    3.2998    2.6640 C.ar      1 <0>        -0.1794
     13 C11         5.7982    2.6752    3.8410 C.ar      1 <0>        -0.0702
     14 C12         6.5013    2.8673    5.0115 C.ar      1 <0>        -0.1304
     15 C13         7.6246    3.6758    5.0234 C.ar      1 <0>        -0.0378
     16 C14         8.0509    4.2977    3.8628 C.ar      1 <0>        -0.1269
     17 C15         7.3619    4.1110    2.6832 C.ar      1 <0>        -0.0552
     18 C16         8.3873    3.8803    6.3070 C.3       1 <0>        -0.0540
     19 C17         8.3961    5.3681    6.6635 C.3       1 <0>        -0.1111
     20 C18         9.1704    5.5758    7.9666 C.3       1 <0>        -0.1204
     21 C19        10.6088    5.0854    7.7889 C.3       1 <0>        -0.1222
     22 C20        10.5999    3.5975    7.4325 C.3       1 <0>        -0.1204
     23 C21         9.8256    3.3899    6.1293 C.3       1 <0>        -0.1110
     24 N1          4.6251    1.5329   -0.9217 N.pl3     1 <0>        -0.7150
     25 C22         4.6017    1.8174   -2.2889 C.ar      1 <0>         0.2782
     26 C23         3.6788    2.7235   -2.7957 C.ar      1 <0>        -0.1926
     27 C24         3.6588    3.0029   -4.1480 C.ar      1 <0>        -0.0040
     28 C25         4.5561    2.3818   -4.9974 C.ar      1 <0>        -0.1118
     29 C26         5.4761    1.4793   -4.4962 C.ar      1 <0>        -0.0045
     30 C27         5.5051    1.1992   -3.1441 C.ar      1 <0>        -0.1942
     31 N2          4.5314    2.6833   -6.4462 N.pl3     1 <0>         0.0455
     32 O2          3.7273    3.4719   -6.8858 O.2       1 <0>        -0.1745
     33 O3          5.3152    2.1411   -7.1899 O.3       1 <0>        -0.1744
     34 H1         -0.9592    1.9045    0.0259 H         1 <0>         0.1373
     35 H2          1.1553    3.1655    0.0076 H         1 <0>         0.1324
     36 H3          3.3426   -0.4952   -0.0336 H         1 <0>         0.1321
     37 H4         -0.9257   -0.5570    0.0082 H         1 <0>         0.1376
     38 H5          3.4847    3.2029   -0.3655 H         1 <0>         0.1058
     39 H6          3.5075    2.6294    2.0805 H         1 <0>         0.1216
     40 H7          4.5208    1.2153    1.7044 H         1 <0>         0.1096
     41 H8          4.9216    2.0443    3.8333 H         1 <0>         0.1310
     42 H9          6.1745    2.3859    5.9213 H         1 <0>         0.1292
     43 H10         8.9282    4.9274    3.8802 H         1 <0>         0.1287
     44 H11         7.6983    4.5934    1.7774 H         1 <0>         0.1329
     45 H12         7.9079    3.3176    7.1080 H         1 <0>         0.0816
     46 H13         8.8755    5.9308    5.8624 H         1 <0>         0.0653
     47 H14         7.3714    5.7175    6.7900 H         1 <0>         0.0641
     48 H15         9.1767    6.6358    8.2206 H         1 <0>         0.0643
     49 H16         8.6910    5.0131    8.7677 H         1 <0>         0.0629
     50 H17        11.0881    5.6481    6.9879 H         1 <0>         0.0620
     51 H18        11.1604    5.2333    8.7173 H         1 <0>         0.0627
     52 H19        11.6246    3.2481    7.3059 H         1 <0>         0.0643
     53 H20        10.1205    3.0348    8.2335 H         1 <0>         0.0629
     54 H21         9.8193    2.3299    5.8754 H         1 <0>         0.0638
     55 H22        10.3050    3.9525    5.3282 H         1 <0>         0.0653
     56 H23         5.2726    0.9030   -0.5683 H         1 <0>         0.4055
     57 H24         2.9775    3.2087   -2.1330 H         1 <0>         0.1414
     58 H25         2.9413    3.7070   -4.5428 H         1 <0>         0.1506
     59 H26         6.1753    0.9957   -5.1623 H         1 <0>         0.1512
     60 H27         6.2266    0.4974   -2.7527 H         1 <0>         0.1423
@<TRIPOS>BOND
     1    1    6 ar
     2    1    2 ar
     3    1   34 1
     4    2    3 ar
     5    2   35 1
     6    3    4 ar
     7    3    8 1
     8    4    5 ar
     9    4   36 1
    10    5    6 ar
    11    5    7 1
    12    6   37 1
    13    8    9 1
    14    8   24 1
    15    8   38 1
    16    9   10 1
    17    9   39 1
    18    9   40 1
    19   10   11 2
    20   10   12 1
    21   12   17 ar
    22   12   13 ar
    23   13   14 ar
    24   13   41 1
    25   14   15 ar
    26   14   42 1
    27   15   16 ar
    28   15   18 1
    29   16   17 ar
    30   16   43 1
    31   17   44 1
    32   18   23 1
    33   18   19 1
    34   18   45 1
    35   19   20 1
    36   19   46 1
    37   19   47 1
    38   20   21 1
    39   20   48 1
    40   20   49 1
    41   21   22 1
    42   21   50 1
    43   21   51 1
    44   22   23 1
    45   22   52 1
    46   22   53 1
    47   23   54 1
    48   23   55 1
    49   24   25 1
    50   24   56 1
    51   25   30 ar
    52   25   26 ar
    53   26   27 ar
    54   26   57 1
    55   27   28 ar
    56   27   58 1
    57   28   29 ar
    58   28   31 1
    59   29   30 ar
    60   29   59 1
    61   30   60 1
    62   31   32 2
    63   31   33 1
@<TRIPOS>MOLECULE
CHEMBL486915
   42    45     0     0     0
SMALL
USER_CHARGES

@<TRIPOS>ATOM
      1 C1          0.6509   -0.3701   -1.3552 C.3       1 <0>        -0.1575
      2 C2         -0.0993    0.1979   -0.1488 C.3       1 <0>        -0.1135
      3 C3         -1.4333   -0.5336    0.0129 C.3       1 <0>         0.2601
      4 C4         -1.1491   -1.9829    0.2594 C.ar      1 <0>        -0.1351
      5 C5          0.1033   -2.2754    0.7905 C.ar      1 <0>        -0.0693
      6 C6          0.4828   -3.5824    1.0600 C.ar      1 <0>        -0.0385
      7 C7         -0.4094   -4.6190    0.7913 C.ar      1 <0>        -0.0598
      8 C8         -1.6441   -4.3303    0.2686 C.ar      1 <0>        -0.1579
      9 C9         -2.0356   -3.0077   -0.0039 C.ar      1 <0>         0.1976
     10 N1         -3.3065   -2.8675   -0.5177 N.am      1 <0>        -0.6463
     11 C10        -3.9890   -1.8810   -1.0350 C.2       1 <0>         0.4993
     12 O1         -5.0291   -2.1673   -1.5894 O.2       1 <0>        -0.5266
     13 C11        -3.6159   -0.4386   -1.0106 C.3       1 <0>         0.0487
     14 O2         -2.2206   -0.2652   -1.1089 O.3       1 <0>        -0.3424
     15 C12         1.8232   -3.8734    1.6282 C.2       1 <0>        -0.1381
     16 C13         2.3457   -5.1484    1.9464 C.2       1 <0>        -0.1081
     17 C14         3.6008   -4.9444    2.4383 C.2       1 <0>         0.0450
     18 O3          3.8500   -3.6191    2.4286 O.3       1 <0>        -0.1480
     19 C15         2.7889   -2.9644    1.9378 C.2       1 <0>         0.0207
     20 C16         4.5005   -5.9633    2.8889 C.1       1 <0>         0.2843
     21 N2          5.2142   -6.7716    3.2463 N.1       1 <0>        -0.3698
     22 C17        -2.1323    0.0221    1.2268 C.2       1 <0>        -0.0664
     23 C18        -2.0956   -0.5028    2.4648 C.2       1 <0>        -0.1786
     24 C19        -2.8848    0.3332    3.2877 C.2       1 <0>        -0.2143
     25 C20        -3.3565    1.3190    2.5033 C.2       1 <0>        -0.0322
     26 O4         -2.8928    1.1287    1.2574 O.3       1 <0>        -0.1666
     27 H1          1.6013    0.1510   -1.4704 H         1 <0>         0.0628
     28 H2          0.8359   -1.4331   -1.2005 H         1 <0>         0.0627
     29 H3          0.0500   -0.2330   -2.2542 H         1 <0>         0.0671
     30 H4          0.5016    0.0608    0.7502 H         1 <0>         0.0870
     31 H5         -0.2843    1.2609   -0.3036 H         1 <0>         0.0839
     32 H6          0.7926   -1.4701    0.9972 H         1 <0>         0.1403
     33 H7         -0.1303   -5.6426    0.9931 H         1 <0>         0.1366
     34 H8         -2.3315   -5.1372    0.0620 H         1 <0>         0.1350
     35 H9         -3.8124   -3.6946   -0.4887 H         1 <0>         0.4017
     36 H10        -4.0978    0.0683   -1.8466 H         1 <0>         0.1447
     37 H11        -3.9653    0.0041   -0.0778 H         1 <0>         0.0983
     38 H12         1.8473   -6.0987    1.8243 H         1 <0>         0.1669
     39 H13         2.7113   -1.8947    1.8115 H         1 <0>         0.2184
     40 H14        -1.5656   -1.3925    2.7712 H         1 <0>         0.1499
     41 H15        -3.0731    0.2048    4.3433 H         1 <0>         0.1516
     42 H16        -3.9964    2.1285    2.8223 H         1 <0>         0.2067
@<TRIPOS>BOND
     1    1    2 1
     2    1   27 1
     3    1   28 1
     4    1   29 1
     5    2    3 1
     6    2   30 1
     7    2   31 1
     8    3   14 1
     9    3    4 1
    10    3   22 1
    11    4    9 ar
    12    4    5 ar
    13    5    6 ar
    14    5   32 1
    15    6    7 ar
    16    6   15 1
    17    7    8 ar
    18    7   33 1
    19    8    9 ar
    20    8   34 1
    21    9   10 1
    22   10   11 am
    23   10   35 1
    24   11   12 2
    25   11   13 1
    26   13   14 1
    27   13   36 1
    28   13   37 1
    29   15   19 2
    30   15   16 1
    31   16   17 2
    32   16   38 1
    33   17   18 1
    34   17   20 1
    35   18   19 1
    36   19   39 1
    37   20   21 3
    38   22   26 1
    39   22   23 2
    40   23   24 1
    41   23   40 1
    42   24   25 2
    43   24   41 1
    44   25   26 1
    45   25   42 1
@<TRIPOS>MOLECULE
CHEMBL486915__1
   42    45     0     0     0
SMALL
USER_CHARGES

@<TRIPOS>ATOM
      1 C1         -0.0095    1.5057    0.2499 C.3       1 <0>        -0.1526
      2 C2          0.0021   -0.0041    0.0020 C.3       1 <0>        -0.1136
      3 C3         -1.4333   -0.5336    0.0129 C.3       1 <0>         0.2590
      4 C4         -1.3944   -2.0060   -0.2566 C.ar      1 <0>        -0.1380
      5 C5         -0.2731   -2.4704   -0.9374 C.ar      1 <0>        -0.0723
      6 C6         -0.1226   -3.8155   -1.2417 C.ar      1 <0>        -0.0364
      7 C7         -1.1149   -4.7154   -0.8566 C.ar      1 <0>        -0.0602
      8 C8         -2.2207   -4.2571   -0.1872 C.ar      1 <0>        -0.1571
      9 C9         -2.3801   -2.8949    0.1224 C.ar      1 <0>         0.1978
     10 N1         -3.5436   -2.5784    0.7893 N.am      1 <0>        -0.6465
     11 C10        -4.0068   -1.5094    1.3803 C.2       1 <0>         0.4990
     12 O1         -5.0003   -1.6487    2.0620 O.2       1 <0>        -0.5266
     13 C11        -3.4345   -0.1360    1.3000 C.3       1 <0>         0.0485
     14 O2         -2.0280   -0.1667    1.2220 O.3       1 <0>        -0.3421
     15 C12         1.0811   -4.2908   -1.9693 C.2       1 <0>        -0.1387
     16 C13         1.3653   -5.6229   -2.3500 C.2       1 <0>        -0.1081
     17 C14         2.5679   -5.5974   -2.9919 C.2       1 <0>         0.0451
     18 O3          3.0111   -4.3239   -3.0121 O.3       1 <0>        -0.1481
     19 C15         2.1216   -3.5273   -2.4040 C.2       1 <0>         0.0211
     20 C16         3.2451   -6.7296   -3.5488 C.1       1 <0>         0.2843
     21 N2          3.7823   -7.6278   -3.9905 N.1       1 <0>        -0.3697
     22 C17        -2.1899    0.1303   -1.1086 C.2       1 <0>        -0.0600
     23 C18        -2.3718   -0.3747   -2.3420 C.2       1 <0>        -0.1809
     24 C19        -3.1328    0.5728   -3.0645 C.2       1 <0>        -0.2135
     25 C20        -3.3704    1.6002   -2.2294 C.2       1 <0>        -0.0343
     26 O4         -2.8019    1.3241   -1.0444 O.3       1 <0>        -0.1652
     27 H1          1.0131    1.8830    0.2422 H         1 <0>         0.0606
     28 H2         -0.5844    1.9982   -0.5343 H         1 <0>         0.0567
     29 H3         -0.4653    1.7114    1.2184 H         1 <0>         0.0676
     30 H4          0.4579   -0.2098   -0.9665 H         1 <0>         0.0872
     31 H5          0.5770   -0.4966    0.7862 H         1 <0>         0.0878
     32 H6          0.4943   -1.7707   -1.2340 H         1 <0>         0.1399
     33 H7         -1.0136   -5.7664   -1.0835 H         1 <0>         0.1369
     34 H8         -2.9865   -4.9586    0.1092 H         1 <0>         0.1352
     35 H9         -4.1637   -3.3232    0.8289 H         1 <0>         0.4017
     36 H10        -3.8292    0.3633    0.4151 H         1 <0>         0.0993
     37 H11        -3.7302    0.4256    2.1862 H         1 <0>         0.1445
     38 H12         0.7498   -6.4913   -2.1674 H         1 <0>         0.1670
     39 H13         2.2154   -2.4589   -2.2774 H         1 <0>         0.2187
     40 H14        -2.0061   -1.3220   -2.7099 H         1 <0>         0.1492
     41 H15        -3.4602    0.4881   -4.0902 H         1 <0>         0.1509
     42 H16        -3.9273    2.4937   -2.4698 H         1 <0>         0.2058
@<TRIPOS>BOND
     1    1    2 1
     2    1   27 1
     3    1   28 1
     4    1   29 1
     5    2    3 1
     6    2   30 1
     7    2   31 1
     8    3   14 1
     9    3    4 1
    10    3   22 1
    11    4    9 ar
    12    4    5 ar
    13    5    6 ar
    14    5   32 1
    15    6    7 ar
    16    6   15 1
    17    7    8 ar
    18    7   33 1
    19    8    9 ar
    20    8   34 1
    21    9   10 1
    22   10   11 am
    23   10   35 1
    24   11   12 2
    25   11   13 1
    26   13   14 1
    27   13   36 1
    28   13   37 1
    29   15   19 2
    30   15   16 1
    31   16   17 2
    32   16   38 1
    33   17   18 1
    34   17   20 1
    35   18   19 1
    36   19   39 1
    37   20   21 3
    38   22   26 1
    39   22   23 2
    40   23   24 1
    41   23   40 1
    42   24   25 2
    43   24   41 1
    44   25   26 1
    45   25   42 1
@<TRIPOS>MOLECULE
CHEMBL132889
   43    45     0     0     0
SMALL
USER_CHARGES

@<TRIPOS>ATOM
      1 C1         -2.5102    3.6718    1.3246 C.3       1 <0>        -0.0981
      2 C2         -1.5145    2.8207    0.5794 C.2       1 <0>        -0.1319
      3 C3         -1.5634    2.7236   -0.7836 C.2       1 <0>        -0.0666
      4 C4         -0.6268    1.9285   -1.4284 C.2       1 <0>        -0.1372
      5 S1          0.3421    1.3078   -0.0636 S.3       1 <0>         0.1452
      6 C5         -0.5290    2.1268    1.2620 C.2       1 <0>        -0.0702
      7 C6         -0.2675    2.0756    2.7146 C.ar      1 <0>        -0.0717
      8 C7         -0.2420    3.2538    3.4650 C.ar      1 <0>        -0.0392
      9 C8          0.0071    3.1976    4.8165 C.ar      1 <0>        -0.1825
     10 C9          0.2320    1.9713    5.4440 C.ar      1 <0>         0.2329
     11 C10         0.1980    0.7990    4.7036 C.ar      1 <0>        -0.1400
     12 C11        -0.0507    0.8503    3.3446 C.ar      1 <0>        -0.0401
     13 C12         0.4055   -0.5525    5.3413 C.3       1 <0>        -0.0584
     14 C13         0.9849   -0.3722    6.7255 C.2       1 <0>         0.3687
     15 O1          1.8824   -1.0720    7.1295 O.2       1 <0>        -0.4265
     16 C14         0.3892    0.7272    7.5850 C.3       1 <0>         0.1339
     17 N1          0.4952    1.9740    6.8158 N.pl3     1 <0>        -0.7310
     18 C15        -1.0798    0.4200    7.8825 C.3       1 <0>        -0.1631
     19 C16         1.1738    0.8514    8.8926 C.3       1 <0>        -0.1498
     20 C17        -0.9362   -1.2810    5.4408 C.3       1 <0>        -0.1453
     21 C18         1.3714   -1.3765    4.4875 C.3       1 <0>        -0.1362
     22 C19        -0.4761    1.6718   -2.8291 C.1       1 <0>         0.2926
     23 N2         -0.3565    1.4681   -3.9403 N.1       1 <0>        -0.3964
     24 H1         -2.0841    4.6595    1.5007 H         1 <0>         0.0714
     25 H2         -3.4201    3.7691    0.7324 H         1 <0>         0.0681
     26 H3         -2.7466    3.2025    2.2795 H         1 <0>         0.0721
     27 H4         -2.3163    3.2548   -1.3470 H         1 <0>         0.1461
     28 H5         -0.4168    4.2056    2.9854 H         1 <0>         0.1312
     29 H6          0.0292    4.1086    5.3961 H         1 <0>         0.1305
     30 H7         -0.0730   -0.0623    2.7675 H         1 <0>         0.1295
     31 H8          0.7475    2.7986    7.2601 H         1 <0>         0.4090
     32 H9         -1.1740   -0.6120    8.2203 H         1 <0>         0.0708
     33 H10        -1.4410    1.0917    8.6613 H         1 <0>         0.0736
     34 H11        -1.6711    0.5616    6.9778 H         1 <0>         0.0768
     35 H12         2.2134    1.0927    8.6709 H         1 <0>         0.0684
     36 H13         0.7394    1.6429    9.5032 H         1 <0>         0.0721
     37 H14         1.1277   -0.0928    9.4351 H         1 <0>         0.0807
     38 H15        -1.2840   -1.5401    4.4408 H         1 <0>         0.0736
     39 H16        -0.8133   -2.1900    6.0296 H         1 <0>         0.0643
     40 H17        -1.6672   -0.6318    5.9228 H         1 <0>         0.0743
     41 H18         2.3273   -0.8575    4.4168 H         1 <0>         0.0612
     42 H19         1.5213   -2.3529    4.9483 H         1 <0>         0.0685
     43 H20         0.9537   -1.5062    3.4891 H         1 <0>         0.0685
@<TRIPOS>BOND
     1    1    2 1
     2    1   24 1
     3    1   25 1
     4    1   26 1
     5    2    6 2
     6    2    3 1
     7    3    4 2
     8    3   27 1
     9    4    5 1
    10    4   22 1
    11    5    6 1
    12    6    7 1
    13    7   12 ar
    14    7    8 ar
    15    8    9 ar
    16    8   28 1
    17    9   10 ar
    18    9   29 1
    19   10   17 1
    20   10   11 ar
    21   11   12 ar
    22   11   13 1
    23   12   30 1
    24   13   14 1
    25   13   20 1
    26   13   21 1
    27   14   15 2
    28   14   16 1
    29   16   17 1
    30   16   18 1
    31   16   19 1
    32   17   31 1
    33   18   32 1
    34   18   33 1
    35   18   34 1
    36   19   35 1
    37   19   36 1
    38   19   37 1
    39   20   38 1
    40   20   39 1
    41   20   40 1
    42   21   41 1
    43   21   42 1
    44   21   43 1
    45   22   23 3
@<TRIPOS>MOLECULE
CHEMBL130141
   53    57     0     0     0
SMALL
USER_CHARGES

@<TRIPOS>ATOM
      1 C1         -0.5661    1.2925   -0.0396 C.3       1 <0>        -0.1144
      2 C2          0.0172   -0.0964    0.0027 C.ar      1 <0>        -0.1253
      3 C3          0.2913   -0.7759   -1.1636 C.ar      1 <0>         0.0959
      4 N1          0.8024   -1.9931   -1.1360 N.ar      1 <0>        -0.4814
      5 C4          1.0744   -2.6156   -0.0032 C.ar      1 <0>         0.0898
      6 C5          0.8332   -2.0132    1.2111 C.ar      1 <0>        -0.1499
      7 C6          0.2953   -0.7159    1.2316 C.ar      1 <0>        -0.0113
      8 C7          0.0261   -0.0296    2.5018 C.2       1 <0>        -0.1125
      9 C8         -0.0552   -0.7377    3.6471 C.2       1 <0>         0.1305
     10 C9         -0.1012   -0.2159    4.9389 C.ar      1 <0>        -0.0358
     11 C10        -1.0806   -0.8147    5.7679 C.ar      1 <0>        -0.0922
     12 C11        -1.5745   -0.1435    6.8629 C.ar      1 <0>        -0.0546
     13 C12        -1.1004    1.0741    7.2523 C.ar      1 <0>        -0.1655
     14 C13         0.0679    1.5659    6.6420 C.ar      1 <0>         0.2262
     15 C14         0.6426    0.8805    5.5152 C.ar      1 <0>        -0.0922
     16 C15         1.9618    1.2988    5.0546 C.2       1 <0>        -0.0625
     17 C16         2.5155    2.4041    5.5252 C.2       1 <0>        -0.1715
     18 C17         1.9048    3.2448    6.5364 C.3       1 <0>         0.2274
     19 N2          0.6549    2.7638    6.9678 N.pl3     1 <0>        -0.7073
     20 C18         1.8050    4.6952    6.0393 C.3       1 <0>        -0.1577
     21 C19         2.8838    3.3452    7.7796 C.3       1 <0>        -0.1726
     22 C20         2.7439    0.4447    3.9853 C.3       1 <0>        -0.1078
     23 C21        -1.5738   -2.2027    5.3588 C.ar      1 <0>        -0.1046
     24 C22        -2.5691   -2.7805    6.1058 C.ar      1 <0>        -0.1063
     25 C23        -2.9487   -4.0979    5.7331 C.ar      1 <0>         0.0714
     26 C24        -2.3238   -4.7244    4.6024 C.ar      1 <0>        -0.1167
     27 C25        -1.3523   -4.0764    3.9075 C.ar      1 <0>        -0.1192
     28 C26        -0.9010   -2.8031    4.2323 C.ar      1 <0>         0.1292
     29 O1         -0.0350   -2.1105    3.5811 O.3       1 <0>        -0.2298
     30 F1         -3.9088   -4.6984    6.3787 F         1 <0>        -0.1204
     31 H1          0.2408    2.0249   -0.0638 H         1 <0>         0.0756
     32 H2         -1.1820    1.4008   -0.9324 H         1 <0>         0.0735
     33 H3         -1.1790    1.4563    0.8467 H         1 <0>         0.0691
     34 H4          0.0849   -0.3066   -2.1141 H         1 <0>         0.1550
     35 H5          1.4917   -3.6113   -0.0300 H         1 <0>         0.1555
     36 H6          1.0579   -2.5285    2.1333 H         1 <0>         0.1513
     37 H7         -0.1067    1.0421    2.5190 H         1 <0>         0.1525
     38 H8         -2.4187   -0.5496    7.3960 H         1 <0>         0.1270
     39 H9         -1.5102    1.6262    8.0805 H         1 <0>         0.1360
     40 H10         3.5600    2.6413    5.0809 H         1 <0>         0.1364
     41 H11         0.1564    3.3306    7.6908 H         1 <0>         0.4057
     42 H12         1.1966    4.7285    5.1355 H         1 <0>         0.0581
     43 H13         1.3443    5.3127    6.8104 H         1 <0>         0.0616
     44 H14         2.8034    5.0733    5.8193 H         1 <0>         0.0722
     45 H15         3.8314    3.7801    7.4616 H         1 <0>         0.0678
     46 H16         2.4338    3.9756    8.5465 H         1 <0>         0.0597
     47 H17         3.0594    2.3488    8.1852 H         1 <0>         0.0537
     48 H18         2.4881    0.7928    2.9846 H         1 <0>         0.0708
     49 H19         3.8164    0.5557    4.1455 H         1 <0>         0.0668
     50 H20         2.4682   -0.6050    4.0865 H         1 <0>         0.0652
     51 H21        -3.0004   -2.3197    6.9309 H         1 <0>         0.1426
     52 H22        -2.6321   -5.7191    4.2632 H         1 <0>         0.1504
     53 H23        -0.8360   -4.5196    3.0697 H         1 <0>         0.1348
@<TRIPOS>BOND
     1    1    2 1
     2    1   31 1
     3    1   32 1
     4    1   33 1
     5    2    7 ar
     6    2    3 ar
     7    3    4 ar
     8    3   34 1
     9    4    5 ar
    10    5    6 ar
    11    5   35 1
    12    6    7 ar
    13    6   36 1
    14    7    8 1
    15    8    9 2
    16    8   37 1
    17    9   29 1
    18    9   10 1
    19   10   15 ar
    20   10   11 ar
    21   11   12 ar
    22   11   23 1
    23   12   13 ar
    24   12   38 1
    25   13   14 ar
    26   13   39 1
    27   14   19 1
    28   14   15 ar
    29   15   16 1
    30   16   17 2
    31   16   22 1
    32   17   18 1
    33   17   40 1
    34   18   19 1
    35   18   20 1
    36   18   21 1
    37   19   41 1
    38   20   42 1
    39   20   43 1
    40   20   44 1
    41   21   45 1
    42   21   46 1
    43   21   47 1
    44   22   48 1
    45   22   49 1
    46   22   50 1
    47   23   28 ar
    48   23   24 ar
    49   24   25 ar
    50   24   51 1
    51   25   26 ar
    52   25   30 1
    53   26   27 ar
    54   26   52 1
    55   27   28 ar
    56   27   53 1
    57   28   29 1
@<TRIPOS>MOLECULE
CHEMBL286130
   50    54     0     0     0
SMALL
USER_CHARGES

@<TRIPOS>ATOM
      1 C1         -0.2002    0.6649   -0.6676 C.3       1 <0>        -0.1592
      2 C2          0.0643   -0.8303   -0.9045 C.3       1 <0>         0.1848
      3 C3          0.9589   -0.9858   -2.1306 C.3       1 <0>        -0.0920
      4 C4          2.4183   -1.0814   -1.7577 C.2       1 <0>        -0.0588
      5 C5          3.2897   -1.5533   -2.6569 C.2       1 <0>        -0.1943
      6 C6          2.8611   -0.7111   -0.4002 C.ar      1 <0>        -0.0830
      7 C7          1.9781   -1.0660    0.6416 C.ar      1 <0>         0.2208
      8 C8          2.3720   -0.9623    1.9611 C.ar      1 <0>        -0.1733
      9 C9          3.6223   -0.4538    2.2550 C.ar      1 <0>        -0.0623
     10 C10         4.4338    0.0391    1.2396 C.ar      1 <0>        -0.0805
     11 C11         4.0233   -0.0214   -0.0975 C.ar      1 <0>        -0.0643
     12 C12         4.8289    0.7007   -1.1408 C.3       1 <0>         0.1956
     13 O1          5.7855    1.5966   -0.5919 O.3       1 <0>        -0.3100
     14 C13         6.4274    1.3369    0.5658 C.ar      1 <0>         0.1341
     15 C14         5.7834    0.5686    1.5422 C.ar      1 <0>        -0.1082
     16 C15         6.4132    0.3055    2.7528 C.ar      1 <0>        -0.0783
     17 C16         7.6835    0.8039    2.9809 C.ar      1 <0>        -0.1468
     18 C17         8.3249    1.5577    2.0138 C.ar      1 <0>        -0.0869
     19 C18         7.6997    1.8258    0.8090 C.ar      1 <0>        -0.1424
     20 C19         3.9025    1.5468   -1.9756 C.ar      1 <0>        -0.0777
     21 C20         3.3152    2.6729   -1.4297 C.ar      1 <0>        -0.0707
     22 C21         2.4654    3.4494   -2.1949 C.ar      1 <0>        -0.1137
     23 C22         2.2027    3.0993   -3.5073 C.ar      1 <0>        -0.0249
     24 C23         2.7908    1.9722   -4.0531 C.ar      1 <0>        -0.1149
     25 C24         3.6448    1.1997   -3.2887 C.ar      1 <0>        -0.0803
     26 Cl1         1.1351    4.0737   -4.4688 Cl        1 <0>        -0.0690
     27 N1          0.6716   -1.4034    0.2971 N.pl3     1 <0>        -0.7386
     28 C25        -1.2819   -1.5245   -1.1599 C.3       1 <0>        -0.1561
     29 H1          0.7413    1.1712   -0.4546 H         1 <0>         0.0586
     30 H2         -0.6529    1.0995   -1.5589 H         1 <0>         0.0637
     31 H3         -0.8767    0.7846    0.1787 H         1 <0>         0.0580
     32 H4          0.6650   -1.8848   -2.6880 H         1 <0>         0.0777
     33 H5          0.8130   -0.1233   -2.7979 H         1 <0>         0.0856
     34 H6          2.9452   -1.8593   -3.6337 H         1 <0>         0.1079
     35 H7          4.3374   -1.6281   -2.4059 H         1 <0>         0.0999
     36 H8          1.7140   -1.2697    2.7610 H         1 <0>         0.1285
     37 H9          3.9733   -0.4465    3.2780 H         1 <0>         0.1282
     38 H10         5.3322   -0.0185   -1.7850 H         1 <0>         0.0902
     39 H11         5.9295   -0.2890    3.5114 H         1 <0>         0.1277
     40 H12         8.1849    0.6041    3.9163 H         1 <0>         0.1261
     41 H13         9.3202    1.9305    2.1992 H         1 <0>         0.1306
     42 H14         8.2077    2.4152    0.0581 H         1 <0>         0.1326
     43 H15         3.5201    2.9459   -0.4051 H         1 <0>         0.1292
     44 H16         2.0064    4.3289   -1.7682 H         1 <0>         0.1337
     45 H17         2.5858    1.6983   -5.0775 H         1 <0>         0.1355
     46 H18         4.1077    0.3225   -3.7161 H         1 <0>         0.1362
     47 H19         0.1650   -2.0200    0.8532 H         1 <0>         0.3999
     48 H20        -1.7564   -1.0855   -2.0376 H         1 <0>         0.0742
     49 H21        -1.1156   -2.5882   -1.3306 H         1 <0>         0.0628
     50 H22        -1.9291   -1.3926   -0.2928 H         1 <0>         0.0642
@<TRIPOS>BOND
     1    1    2 1
     2    1   29 1
     3    1   30 1
     4    1   31 1
     5    2   27 1
     6    2    3 1
     7    2   28 1
     8    3    4 1
     9    3   32 1
    10    3   33 1
    11    4    5 2
    12    4    6 1
    13    5   34 1
    14    5   35 1
    15    6   11 ar
    16    6    7 ar
    17    7    8 ar
    18    7   27 1
    19    8    9 ar
    20    8   36 1
    21    9   10 ar
    22    9   37 1
    23   10   15 1
    24   10   11 ar
    25   11   12 1
    26   12   13 1
    27   12   20 1
    28   12   38 1
    29   13   14 1
    30   14   19 ar
    31   14   15 ar
    32   15   16 ar
    33   16   17 ar
    34   16   39 1
    35   17   18 ar
    36   17   40 1
    37   18   19 ar
    38   18   41 1
    39   19   42 1
    40   20   25 ar
    41   20   21 ar
    42   21   22 ar
    43   21   43 1
    44   22   23 ar
    45   22   44 1
    46   23   24 ar
    47   23   26 1
    48   24   25 ar
    49   24   45 1
    50   25   46 1
    51   27   47 1
    52   28   48 1
    53   28   49 1
    54   28   50 1
@<TRIPOS>MOLECULE
CHEMBL286130__1
   50    54     0     0     0
SMALL
USER_CHARGES

@<TRIPOS>ATOM
      1 C1         -0.6348    1.6590    0.8822 C.3       1 <0>        -0.1546
      2 C2         -0.3592    0.2290    0.4129 C.3       1 <0>         0.1817
      3 C3         -1.6301   -0.6182    0.5707 C.3       1 <0>        -0.0937
      4 C4         -1.2923   -2.0385    0.1628 C.2       1 <0>        -0.0527
      5 C5         -2.1217   -2.7551   -0.5839 C.2       1 <0>        -0.2323
      6 C6         -0.0015   -2.5964    0.6285 C.ar      1 <0>        -0.1064
      7 C7          0.9689   -1.7276    1.1538 C.ar      1 <0>         0.2360
      8 C8          2.1836   -2.2331    1.5959 C.ar      1 <0>        -0.1862
      9 C9          2.4423   -3.5876    1.5115 C.ar      1 <0>        -0.0495
     10 C10         1.4891   -4.4487    0.9821 C.ar      1 <0>        -0.0889
     11 C11         0.2524   -3.9576    0.5576 C.ar      1 <0>        -0.0488
     12 C12        -0.7909   -4.9221    0.0595 C.3       1 <0>         0.1402
     13 O1         -0.1757   -6.0497   -0.5604 O.3       1 <0>        -0.2990
     14 C13         0.8505   -6.6636    0.0807 C.ar      1 <0>         0.1231
     15 C14         1.7339   -5.9049    0.8588 C.ar      1 <0>        -0.1016
     16 C15         2.8042   -6.5172    1.4959 C.ar      1 <0>        -0.0837
     17 C16         2.9869   -7.8814    1.3677 C.ar      1 <0>        -0.1424
     18 C17         2.1071   -8.6329    0.6094 C.ar      1 <0>        -0.0892
     19 C18         1.0406   -8.0298   -0.0308 C.ar      1 <0>        -0.1417
     20 C19        -1.6302   -5.3896    1.2205 C.ar      1 <0>        -0.1029
     21 C20        -1.1007   -6.2699    2.1456 C.ar      1 <0>        -0.0953
     22 C21        -1.8700   -6.6991    3.2106 C.ar      1 <0>        -0.1084
     23 C22        -3.1702   -6.2475    3.3508 C.ar      1 <0>        -0.0290
     24 C23        -3.6996   -5.3665    2.4246 C.ar      1 <0>        -0.1119
     25 C24        -2.9274   -4.9337    1.3631 C.ar      1 <0>        -0.0913
     26 Cl1        -4.1373   -6.7866    4.6879 Cl        1 <0>        -0.0687
     27 N1          0.7074   -0.3600    1.2310 N.pl3     1 <0>        -0.7363
     28 C25         0.0704    0.2452   -1.0554 C.3       1 <0>        -0.1606
     29 H1          0.2715    2.2558    0.7803 H         1 <0>         0.0656
     30 H2         -1.4271    2.0948    0.2736 H         1 <0>         0.0764
     31 H3         -0.9452    1.6451    1.9270 H         1 <0>         0.0645
     32 H4         -1.9590   -0.6007    1.6097 H         1 <0>         0.0779
     33 H5         -2.4174   -0.2264   -0.0733 H         1 <0>         0.0890
     34 H6         -1.7335   -3.3792   -1.3753 H         1 <0>         0.1247
     35 H7         -3.1852   -2.7146   -0.4007 H         1 <0>         0.1172
     36 H8          2.9277   -1.5666    2.0062 H         1 <0>         0.1278
     37 H9          3.3880   -3.9779    1.8575 H         1 <0>         0.1291
     38 H10        -1.4299   -4.4177   -0.6653 H         1 <0>         0.1699
     39 H11         3.4909   -5.9308    2.0884 H         1 <0>         0.1279
     40 H12         3.8191   -8.3619    1.8607 H         1 <0>         0.1273
     41 H13         2.2532   -9.6991    0.5191 H         1 <0>         0.1302
     42 H14         0.3582   -8.6242   -0.6203 H         1 <0>         0.1329
     43 H15        -0.0858   -6.6226    2.0359 H         1 <0>         0.1356
     44 H16        -1.4564   -7.3871    3.9331 H         1 <0>         0.1338
     45 H17        -4.7146   -5.0139    2.5333 H         1 <0>         0.1357
     46 H18        -3.3390   -4.2423    0.6427 H         1 <0>         0.1379
     47 H19         1.2302    0.2015    1.8246 H         1 <0>         0.4022
     48 H20         0.9759    0.8426   -1.1625 H         1 <0>         0.0600
     49 H21         0.2663   -0.7742   -1.3879 H         1 <0>         0.0613
     50 H22        -0.7247    0.6787   -1.6619 H         1 <0>         0.0675
@<TRIPOS>BOND
     1    1    2 1
     2    1   29 1
     3    1   30 1
     4    1   31 1
     5    2   27 1
     6    2    3 1
     7    2   28 1
     8    3    4 1
     9    3   32 1
    10    3   33 1
    11    4    5 2
    12    4    6 1
    13    5   34 1
    14    5   35 1
    15    6   11 ar
    16    6    7 ar
    17    7    8 ar
    18    7   27 1
    19    8    9 ar
    20    8   36 1
    21    9   10 ar
    22    9   37 1
    23   10   15 1
    24   10   11 ar
    25   11   12 1
    26   12   13 1
    27   12   20 1
    28   12   38 1
    29   13   14 1
    30   14   19 ar
    31   14   15 ar
    32   15   16 ar
    33   16   17 ar
    34   16   39 1
    35   17   18 ar
    36   17   40 1
    37   18   19 ar
    38   18   41 1
    39   19   42 1
    40   20   25 ar
    41   20   21 ar
    42   21   22 ar
    43   21   43 1
    44   22   23 ar
    45   22   44 1
    46   23   24 ar
    47   23   26 1
    48   24   25 ar
    49   24   45 1
    50   25   46 1
    51   27   47 1
    52   28   48 1
    53   28   49 1
    54   28   50 1
@<TRIPOS>MOLECULE
CHEMBL239958
   43    45     0     0     0
SMALL
USER_CHARGES

@<TRIPOS>ATOM
      1 C1          0.7940    3.5922   -0.4852 C.3       1 <0>        -0.1503
      2 C2          0.5606    2.1348   -0.8879 C.3       1 <0>        -0.1570
      3 C3          0.9917    1.2143    0.2557 C.3       1 <0>         0.1557
      4 C4          0.6436   -0.2334   -0.0960 C.3       1 <0>        -0.1573
      5 C5          0.9598   -1.1382    1.0966 C.3       1 <0>        -0.1502
      6 N1          2.4375    1.3332    0.4597 N.pl3     1 <0>        -0.4560
      7 C6          3.0645    1.7422    1.6346 C.ar      1 <0>         0.0887
      8 C7          2.5909    2.1331    2.8745 C.ar      1 <0>        -0.0709
      9 C8          3.4919    2.4951    3.8766 C.ar      1 <0>         0.0004
     10 C9          4.8667    2.4615    3.6249 C.ar      1 <0>        -0.1084
     11 C10         5.3345    2.0722    2.3891 C.ar      1 <0>        -0.0845
     12 C11         4.4406    1.7109    1.3895 C.ar      1 <0>         0.0764
     13 N2          4.6047    1.2844    0.0754 N.pl3     1 <0>        -0.5758
     14 H1          5.4525    1.1648   -0.3805 H         1 <0>         0.4479
     15 C12         3.3876    1.0604   -0.4543 C.2       1 <0>         0.5044
     16 S1          3.0923    0.5152   -2.0500 S.2       1 <0>        -0.5840
     17 C13         2.9933    2.9139    5.2025 C.2       1 <0>         0.0872
     18 C14         1.7295    3.3905    5.4756 C.2       1 <0>        -0.1709
     19 C15         1.6683    3.6697    6.8403 C.2       1 <0>        -0.1079
     20 C16         2.8995    3.3586    7.3826 C.2       1 <0>         0.0634
     21 N3          3.7045    2.8895    6.3689 N.pl3     1 <0>        -0.4134
     22 C17         5.0918    2.4421    6.5158 C.3       1 <0>         0.0538
     23 C18         3.2716    3.4942    8.7587 C.1       1 <0>         0.2746
     24 N4          3.5669    3.6019    9.8504 N.1       1 <0>        -0.3990
     25 H2          1.8524    3.7459   -0.2743 H         1 <0>         0.0454
     26 H3          0.4869    4.2480   -1.2999 H         1 <0>         0.0624
     27 H4          0.2091    3.8212    0.4056 H         1 <0>         0.0536
     28 H5         -0.4977    1.9811   -1.0987 H         1 <0>         0.0868
     29 H6          1.1455    1.9058   -1.7787 H         1 <0>         0.1094
     30 H7          0.4710    1.5016    1.1692 H         1 <0>         0.1030
     31 H8         -0.4176   -0.3043   -0.3345 H         1 <0>         0.0869
     32 H9          1.2316   -0.5494   -0.9577 H         1 <0>         0.1096
     33 H10         2.0210   -1.0673    1.3351 H         1 <0>         0.0449
     34 H11         0.3719   -0.8222    1.9584 H         1 <0>         0.0534
     35 H12         0.7119   -2.1696    0.8461 H         1 <0>         0.0623
     36 H13         1.5283    2.1584    3.0657 H         1 <0>         0.1441
     37 H14         5.5636    2.7418    4.4010 H         1 <0>         0.1430
     38 H15         6.3970    2.0476    2.1975 H         1 <0>         0.1425
     39 H16         0.9306    3.5243    4.7612 H         1 <0>         0.1534
     40 H17         0.8143    4.0581    7.3752 H         1 <0>         0.1560
     41 H18         5.7661    3.2628    6.2709 H         1 <0>         0.0877
     42 H19         5.2643    2.1247    7.5442 H         1 <0>         0.0898
     43 H20         5.2772    1.6060    5.8415 H         1 <0>         0.0989
@<TRIPOS>BOND
     1    1    2 1
     2    1   25 1
     3    1   26 1
     4    1   27 1
     5    2    3 1
     6    2   28 1
     7    2   29 1
     8    3    4 1
     9    3    6 1
    10    3   30 1
    11    4    5 1
    12    4   31 1
    13    4   32 1
    14    5   33 1
    15    5   34 1
    16    5   35 1
    17    6   15 1
    18    6    7 1
    19    7   12 ar
    20    7    8 ar
    21    8    9 ar
    22    8   36 1
    23    9   10 ar
    24    9   17 1
    25   10   11 ar
    26   10   37 1
    27   11   12 ar
    28   11   38 1
    29   12   13 1
    30   13   14 1
    31   13   15 1
    32   15   16 2
    33   17   21 1
    34   17   18 2
    35   18   19 1
    36   18   39 1
    37   19   20 2
    38   19   40 1
    39   20   21 1
    40   20   23 1
    41   21   22 1
    42   22   41 1
    43   22   42 1
    44   22   43 1
    45   23   24 3
@<TRIPOS>MOLECULE
CHEMBL549624
   51    52     0     0     0
SMALL
USER_CHARGES

@<TRIPOS>ATOM
      1 C1          1.2281    0.4476    5.2387 C.3       1 <0>        -0.1537
      2 C2         -0.1096    1.0809    4.8505 C.3       1 <0>        -0.1025
      3 C3         -0.3007    2.3852    5.6271 C.3       1 <0>        -0.1477
      4 C4         -0.1178    1.3753    3.3491 C.3       1 <0>        -0.1430
      5 C5         -0.0519    0.0596    2.5710 C.3       1 <0>         0.2443
      6 C6          0.1546    0.3515    1.1071 C.2       1 <0>         0.1458
      7 N1         -0.7596    0.7358    0.2585 N.2       1 <0>        -0.2682
      8 N2         -0.2325    0.8929   -0.9040 N.2       1 <0>        -0.2950
      9 C7          1.0418    0.6160   -0.8497 C.2       1 <0>         0.1551
     10 N3          1.3249    0.2694    0.4292 N.pl3     1 <0>        -0.4719
     11 C8          2.6305   -0.1185    0.9687 C.3       1 <0>         0.0666
     12 N4         -1.3057   -0.6769    2.7500 N.pl3     1 <0>        -0.6019
     13 C9         -1.2801   -2.0612    3.2288 C.3       1 <0>         0.1214
     14 C10        -1.2017   -2.0710    4.7567 C.3       1 <0>        -0.1230
     15 C11        -2.4821   -1.4669    5.3369 C.3       1 <0>        -0.1539
     16 C12        -1.0481   -3.5111    5.2503 C.3       1 <0>        -0.1479
     17 C13        -2.5211   -0.0614    2.4651 C.ar      1 <0>         0.2534
     18 C14        -2.5394    1.1988    1.8733 C.ar      1 <0>        -0.1517
     19 C15        -3.7387    1.8110    1.5899 C.ar      1 <0>        -0.0208
     20 C16        -4.9411    1.1663    1.8969 C.ar      1 <0>        -0.0767
     21 C17        -4.9197   -0.1001    2.4916 C.ar      1 <0>         0.0447
     22 C18        -3.7144   -0.7092    2.7672 C.ar      1 <0>        -0.1883
     23 Cl1        -6.4088   -0.9055    2.8757 Cl        1 <0>        -0.0571
     24 C19        -6.1910    1.8006    1.6038 C.1       1 <0>         0.2576
     25 N5         -7.1825    2.3039    1.3713 N.1       1 <0>        -0.4183
     26 H1          2.0389    1.1354    4.9988 H         1 <0>         0.0556
     27 H2          1.2339    0.2378    6.3083 H         1 <0>         0.0597
     28 H3          1.3643   -0.4817    4.6855 H         1 <0>         0.0518
     29 H4         -0.9204    0.3930    5.0903 H         1 <0>         0.0899
     30 H5          0.5101    3.0730    5.3872 H         1 <0>         0.0537
     31 H6         -1.2537    2.8363    5.3505 H         1 <0>         0.0574
     32 H7         -0.2949    2.1754    6.6967 H         1 <0>         0.0571
     33 H8         -1.0332    1.9063    3.0880 H         1 <0>         0.0980
     34 H9          0.7447    1.9913    3.0949 H         1 <0>         0.0752
     35 H10         0.7784   -0.5410    2.9424 H         1 <0>         0.1084
     36 H11         1.7417    0.6590   -1.6711 H         1 <0>         0.2191
     37 H12         2.7552   -1.1975    0.8779 H         1 <0>         0.0850
     38 H13         3.4189    0.3866    0.4106 H         1 <0>         0.0974
     39 H14         2.6889    0.1669    2.0191 H         1 <0>         0.0913
     40 H15        -2.1873   -2.5734    2.9082 H         1 <0>         0.0862
     41 H16        -0.4097   -2.5721    2.8170 H         1 <0>         0.0734
     42 H17        -0.3432   -1.4825    5.0803 H         1 <0>         0.0818
     43 H18        -2.4263   -1.4739    6.4255 H         1 <0>         0.0553
     44 H19        -2.5915   -0.4410    4.9853 H         1 <0>         0.0649
     45 H20        -3.3406   -2.0554    5.0134 H         1 <0>         0.0582
     46 H21        -0.1360   -3.9414    4.8369 H         1 <0>         0.0543
     47 H22        -0.9923   -3.5180    6.3388 H         1 <0>         0.0600
     48 H23        -1.9066   -4.0996    4.9267 H         1 <0>         0.0575
     49 H24        -1.6107    1.6967    1.6366 H         1 <0>         0.1594
     50 H25        -3.7514    2.7886    1.1311 H         1 <0>         0.1376
     51 H26        -3.6964   -1.6885    3.2222 H         1 <0>         0.1444
@<TRIPOS>BOND
     1    1    2 1
     2    1   26 1
     3    1   27 1
     4    1   28 1
     5    2    3 1
     6    2    4 1
     7    2   29 1
     8    3   30 1
     9    3   31 1
    10    3   32 1
    11    4    5 1
    12    4   33 1
    13    4   34 1
    14    5    6 1
    15    5   12 1
    16    5   35 1
    17    6   10 1
    18    6    7 2
    19    7    8 1
    20    8    9 2
    21    9   10 1
    22    9   36 1
    23   10   11 1
    24   11   37 1
    25   11   38 1
    26   11   39 1
    27   12   13 1
    28   12   17 1
    29   13   14 1
    30   13   40 1
    31   13   41 1
    32   14   15 1
    33   14   16 1
    34   14   42 1
    35   15   43 1
    36   15   44 1
    37   15   45 1
    38   16   46 1
    39   16   47 1
    40   16   48 1
    41   17   22 ar
    42   17   18 ar
    43   18   19 ar
    44   18   49 1
    45   19   20 ar
    46   19   50 1
    47   20   21 ar
    48   20   24 1
    49   21   22 ar
    50   21   23 1
    51   22   51 1
    52   24   25 3
@<TRIPOS>MOLECULE
CHEMBL549624__1
   51    52     0     0     0
SMALL
USER_CHARGES

@<TRIPOS>ATOM
      1 C1         -1.2413   -2.1939    1.4082 C.3       1 <0>        -0.1566
      2 C2          0.2598   -1.9365    1.5546 C.3       1 <0>        -0.0960
      3 C3          1.0196   -2.7308    0.4903 C.3       1 <0>        -0.1464
      4 C4          0.5412   -0.4434    1.3744 C.3       1 <0>        -0.1223
      5 C5         -0.1453    0.3435    2.4925 C.3       1 <0>         0.2362
      6 C6          0.4919   -0.0013    3.8139 C.2       1 <0>         0.1608
      7 N1          1.6526    0.4123    4.2443 N.2       1 <0>        -0.2793
      8 N2          1.8807   -0.0763    5.4118 N.2       1 <0>        -0.2928
      9 C7          0.8758   -0.8239    5.7791 C.2       1 <0>         0.1548
     10 N3         -0.0364   -0.7936    4.7778 N.pl3     1 <0>        -0.4706
     11 C8         -1.3299   -1.4805    4.7429 C.3       1 <0>         0.0647
     12 N4          0.0006    1.7792    2.2399 N.pl3     1 <0>        -0.5948
     13 C9          1.3308    2.3530    2.0217 C.3       1 <0>         0.1101
     14 C10         1.6657    2.3113    0.5294 C.3       1 <0>        -0.1189
     15 C11         0.7110    3.2320   -0.2334 C.3       1 <0>        -0.1510
     16 C12         3.1062    2.7812    0.3167 C.3       1 <0>        -0.1473
     17 C13        -1.1245    2.5980    2.2072 C.ar      1 <0>         0.2643
     18 C14        -2.3951    2.0359    2.2969 C.ar      1 <0>        -0.2078
     19 C15        -3.5102    2.8416    2.2649 C.ar      1 <0>        -0.0044
     20 C16        -3.3667    4.2272    2.1422 C.ar      1 <0>        -0.0861
     21 C17        -2.0885    4.7893    2.0523 C.ar      1 <0>         0.0585
     22 C18        -0.9763    3.9761    2.0908 C.ar      1 <0>        -0.1860
     23 Cl1        -1.9036    6.5087    1.8993 Cl        1 <0>        -0.0478
     24 C19        -4.5249    5.0687    2.1082 C.1       1 <0>         0.2547
     25 N5         -5.4437    5.7361    2.0812 N.1       1 <0>        -0.4121
     26 H1         -1.5878   -1.7915    0.4563 H         1 <0>         0.0632
     27 H2         -1.4307   -3.2668    1.4396 H         1 <0>         0.0613
     28 H3         -1.7747   -1.7067    2.2244 H         1 <0>         0.0489
     29 H4          0.5874   -2.2510    2.5455 H         1 <0>         0.0655
     30 H5          0.6920   -2.4163   -0.5006 H         1 <0>         0.0587
     31 H6          2.0890   -2.5474    0.5946 H         1 <0>         0.0566
     32 H7          0.8191   -3.7945    0.6187 H         1 <0>         0.0575
     33 H8          1.6164   -0.2689    1.4145 H         1 <0>         0.0832
     34 H9          0.1556   -0.1149    0.4092 H         1 <0>         0.0872
     35 H10        -1.2040    0.0855    2.5213 H         1 <0>         0.1099
     36 H11         0.7863   -1.3634    6.7105 H         1 <0>         0.2197
     37 H12        -1.2038   -2.4708    4.3053 H         1 <0>         0.0884
     38 H13        -1.7169   -1.5781    5.7572 H         1 <0>         0.0979
     39 H14        -2.0315   -0.9037    4.1403 H         1 <0>         0.0895
     40 H15         1.3419    3.3866    2.3678 H         1 <0>         0.0788
     41 H16         2.0708    1.7762    2.5764 H         1 <0>         0.1078
     42 H17         1.5582    1.2910    0.1613 H         1 <0>         0.0789
     43 H18         0.9305    3.1797   -1.2998 H         1 <0>         0.0537
     44 H19        -0.3170    2.9151   -0.0580 H         1 <0>         0.0575
     45 H20         0.8396    4.2571    0.1141 H         1 <0>         0.0557
     46 H21         3.7863    2.1253    0.8601 H         1 <0>         0.0579
     47 H22         3.3447    2.7515   -0.7465 H         1 <0>         0.0582
     48 H23         3.2137    3.8015    0.6848 H         1 <0>         0.0566
     49 H24        -2.5058    0.9658    2.3913 H         1 <0>         0.1332
     50 H25        -4.4952    2.4043    2.3342 H         1 <0>         0.1420
     51 H26         0.0111    4.4090    2.0259 H         1 <0>         0.1485
@<TRIPOS>BOND
     1    1    2 1
     2    1   26 1
     3    1   27 1
     4    1   28 1
     5    2    3 1
     6    2    4 1
     7    2   29 1
     8    3   30 1
     9    3   31 1
    10    3   32 1
    11    4    5 1
    12    4   33 1
    13    4   34 1
    14    5    6 1
    15    5   12 1
    16    5   35 1
    17    6   10 1
    18    6    7 2
    19    7    8 1
    20    8    9 2
    21    9   10 1
    22    9   36 1
    23   10   11 1
    24   11   37 1
    25   11   38 1
    26   11   39 1
    27   12   13 1
    28   12   17 1
    29   13   14 1
    30   13   40 1
    31   13   41 1
    32   14   15 1
    33   14   16 1
    34   14   42 1
    35   15   43 1
    36   15   44 1
    37   15   45 1
    38   16   46 1
    39   16   47 1
    40   16   48 1
    41   17   22 ar
    42   17   18 ar
    43   18   19 ar
    44   18   49 1
    45   19   20 ar
    46   19   50 1
    47   20   21 ar
    48   20   24 1
    49   21   22 ar
    50   21   23 1
    51   22   51 1
    52   24   25 3
@<TRIPOS>MOLECULE
CHEMBL315445
   27    29     0     0     0
SMALL
USER_CHARGES

@<TRIPOS>ATOM
      1 C1         -0.0167    1.3788    0.0096 C.ar      1 <0>        -0.1080
      2 C2          1.1677    2.0877    0.0021 C.ar      1 <0>        -0.0623
      3 C3          2.3836    1.4075   -0.0131 C.ar      1 <0>        -0.0336
      4 C4          2.3966    0.0139   -0.0207 C.ar      1 <0>        -0.0503
      5 C5          1.2065   -0.6846   -0.0130 C.ar      1 <0>        -0.0418
      6 C6          0.0021   -0.0041    0.0020 C.ar      1 <0>        -0.0550
      7 N1          1.2186   -2.1647   -0.0216 N.pl3     1 <0>         0.0312
      8 O1          2.2704   -2.7606   -0.0352 O.2       1 <0>        -0.1550
      9 O2          0.1766   -2.7778   -0.0149 O.3       1 <0>        -0.1524
     10 C7          3.6599    2.1640   -0.0217 C.ar      1 <0>        -0.0548
     11 C8          4.8829    1.4922   -0.0428 C.ar      1 <0>        -0.0674
     12 C9          6.0696    2.1800   -0.0510 C.ar      1 <0>        -0.1104
     13 C10         6.0936    3.5859   -0.0388 C.ar      1 <0>         0.1368
     14 C11         4.8502    4.2369   -0.0181 C.ar      1 <0>        -0.1299
     15 C12         3.6577    3.5593   -0.0147 C.ar      1 <0>        -0.0263
     16 S1          5.2946    5.9571   -0.0088 S.3       1 <0>        -0.0263
     17 C13         7.0680    5.7511   -0.0322 C.2       1 <0>         0.5404
     18 N2          7.2052    4.4109   -0.0453 N.am      1 <0>        -0.6544
     19 O3          7.9345    6.6060   -0.0360 O.2       1 <0>        -0.4384
     20 H1         -0.9597    1.9050    0.0260 H         1 <0>         0.1531
     21 H2          1.1519    3.1676    0.0077 H         1 <0>         0.1471
     22 H3          3.3362   -0.5184   -0.0328 H         1 <0>         0.1570
     23 H4         -0.9270   -0.5547    0.0079 H         1 <0>         0.1565
     24 H5          4.8952    0.4123   -0.0525 H         1 <0>         0.1429
     25 H6          7.0007    1.6328   -0.0667 H         1 <0>         0.1407
     26 H7          2.7239    4.1017   -0.0029 H         1 <0>         0.1451
     27 H8          8.0927    4.0198   -0.0595 H         1 <0>         0.4156
@<TRIPOS>BOND
     1    1    6 ar
     2    1    2 ar
     3    1   20 1
     4    2    3 ar
     5    2   21 1
     6    3    4 ar
     7    3   10 1
     8    4    5 ar
     9    4   22 1
    10    5    6 ar
    11    5    7 1
    12    6   23 1
    13    7    8 2
    14    7    9 1
    15   10   15 ar
    16   10   11 ar
    17   11   12 ar
    18   11   24 1
    19   12   13 ar
    20   12   25 1
    21   13   18 1
    22   13   14 ar
    23   14   15 ar
    24   14   16 1
    25   15   26 1
    26   16   17 1
    27   17   18 am
    28   17   19 2
    29   18   27 1
@<TRIPOS>MOLECULE
CHEMBL131681
   40    42     0     0     0
SMALL
USER_CHARGES

@<TRIPOS>ATOM
      1 C1         -0.1315    1.6359    0.9733 C.3       1 <0>        -0.1445
      2 C2         -0.1746    0.1140    0.8223 C.3       1 <0>        -0.0586
      3 C3         -0.0280   -0.2512   -0.6341 C.ar      1 <0>        -0.1369
      4 C4         -1.1093   -0.0472   -1.4733 C.ar      1 <0>        -0.0541
      5 C5         -1.0175   -0.3594   -2.8261 C.ar      1 <0>        -0.0780
      6 C6          0.1705   -0.8793   -3.3369 C.ar      1 <0>        -0.0637
      7 C7          1.2435   -1.0854   -2.4991 C.ar      1 <0>        -0.1783
      8 C8          1.1490   -0.7775   -1.1421 C.ar      1 <0>         0.2198
      9 N1          2.2599   -1.0312   -0.3305 N.pl3     1 <0>        -0.7348
     10 C9          2.3448   -0.4255    1.0050 C.3       1 <0>         0.1349
     11 C10         0.9564   -0.5029    1.6124 C.2       1 <0>         0.3691
     12 O1          0.7638   -1.0336    2.6799 O.2       1 <0>        -0.4286
     13 C11         2.7842    1.0355    0.8893 C.3       1 <0>        -0.1631
     14 C12         3.3377   -1.2045    1.8700 C.3       1 <0>        -0.1493
     15 C13        -2.1806   -0.1399   -3.7219 C.2       1 <0>        -0.0867
     16 C14        -2.1074   -0.4503   -5.0700 C.2       1 <0>        -0.0668
     17 C15        -3.2507   -0.2046   -5.8081 C.2       1 <0>        -0.1593
     18 S1         -4.3637    0.4462   -4.5782 S.3       1 <0>         0.2743
     19 C16        -3.3604    0.3714   -3.2334 C.2       1 <0>        -0.2329
     20 C17        -3.4813   -0.4185   -7.2051 C.1       1 <0>         0.2925
     21 N2         -3.6643   -0.5882   -8.3134 N.1       1 <0>        -0.3959
     22 C18        -1.5112   -0.4131    1.3483 C.3       1 <0>        -0.1343
     23 H1          0.7514    2.0264    0.4671 H         1 <0>         0.0741
     24 H2         -1.0270    2.0706    0.5291 H         1 <0>         0.0726
     25 H3         -0.0882    1.8950    2.0312 H         1 <0>         0.0633
     26 H4         -2.0289    0.3567   -1.0763 H         1 <0>         0.1261
     27 H5          0.2491   -1.1201   -4.3868 H         1 <0>         0.1265
     28 H6          2.1642   -1.4878   -2.8952 H         1 <0>         0.1262
     29 H7          2.9730   -1.6064   -0.6491 H         1 <0>         0.4075
     30 H8          2.2109    1.5261    0.1027 H         1 <0>         0.0765
     31 H9          2.6090    1.5437    1.8375 H         1 <0>         0.0698
     32 H10         3.8457    1.0774    0.6454 H         1 <0>         0.0728
     33 H11         4.3222   -1.1822    1.4026 H         1 <0>         0.0714
     34 H12         3.3943   -0.7484    2.8584 H         1 <0>         0.0797
     35 H13         3.0041   -2.2378    1.9652 H         1 <0>         0.0681
     36 H14        -1.2129   -0.8585   -5.5169 H         1 <0>         0.1516
     37 H15        -3.5885    0.6606   -2.2182 H         1 <0>         0.1937
     38 H16        -2.3269    0.0318    0.7784 H         1 <0>         0.0673
     39 H17        -1.5418   -1.4973    1.2408 H         1 <0>         0.0606
     40 H18        -1.6169   -0.1493    2.4006 H         1 <0>         0.0674
@<TRIPOS>BOND
     1    1    2 1
     2    1   23 1
     3    1   24 1
     4    1   25 1
     5    2   11 1
     6    2    3 1
     7    2   22 1
     8    3    8 ar
     9    3    4 ar
    10    4    5 ar
    11    4   26 1
    12    5    6 ar
    13    5   15 1
    14    6    7 ar
    15    6   27 1
    16    7    8 ar
    17    7   28 1
    18    8    9 1
    19    9   10 1
    20    9   29 1
    21   10   11 1
    22   10   13 1
    23   10   14 1
    24   11   12 2
    25   13   30 1
    26   13   31 1
    27   13   32 1
    28   14   33 1
    29   14   34 1
    30   14   35 1
    31   15   19 2
    32   15   16 1
    33   16   17 2
    34   16   36 1
    35   17   18 1
    36   17   20 1
    37   18   19 1
    38   19   37 1
    39   20   21 3
    40   22   38 1
    41   22   39 1
    42   22   40 1
@<TRIPOS>MOLECULE
CHEMBL268788
   80    87     0     0     0
SMALL
USER_CHARGES

@<TRIPOS>ATOM
      1 C1          1.7870    1.4931    1.1260 C.3       1 <0>        -0.1485
      2 C2          1.4285    0.0382    0.8165 C.3       1 <0>        -0.0741
      3 H1          2.1342   -0.3755    0.0961 H         1 <0>         0.0740
      4 C3         -0.0125   -0.0465    0.2575 C.3       1 <0>        -0.1097
      5 C4         -0.8003   -0.8589    1.2831 C.3       1 <0>        -0.0784
      6 H2         -1.2156   -0.1956    2.0419 H         1 <0>         0.0773
      7 C5         -1.8981   -1.7438    0.7124 C.3       1 <0>        -0.0455
      8 H3         -1.4678   -2.3912   -0.0517 H         1 <0>         0.0962
      9 C6         -2.9731   -0.8784    0.0767 C.3       1 <0>        -0.1116
     10 C7         -4.2536   -1.6723   -0.1792 C.3       1 <0>        -0.0964
     11 C8         -4.7176   -2.2369    1.1401 C.2       1 <0>         0.0248
     12 C9         -6.0207   -2.2181    1.4979 C.2       1 <0>        -0.2469
     13 C10        -6.4203   -2.6609    2.7706 C.2       1 <0>         0.3866
     14 O1         -7.6035   -2.7822    3.0168 O.2       1 <0>        -0.4691
     15 C11        -5.4053   -2.9876    3.8331 C.3       1 <0>        -0.1660
     16 C12        -4.1842   -3.6584    3.1979 C.3       1 <0>        -0.0817
     17 C13        -3.7161   -2.8190    2.0326 C.2       1 <0>        -0.1248
     18 C14        -2.4257   -2.5986    1.8366 C.2       1 <0>        -0.0486
     19 C15        -1.4647   -3.2946    2.7798 C.3       1 <0>        -0.0301
     20 H4         -2.0044   -3.6100    3.6727 H         1 <0>         0.1063
     21 C16        -0.3198   -2.3546    3.1871 C.3       1 <0>        -0.1012
     22 C17         0.2763   -1.7789    1.9172 C.3       1 <0>        -0.0490
     23 C18         1.4440   -0.8031    2.1206 C.3       1 <0>        -0.1200
     24 H5          1.2692   -0.1694    2.9900 H         1 <0>         0.0988
     25 C19         2.7459   -1.5498    2.2572 C.2       1 <0>         0.3910
     26 O2          2.8959   -2.6093    1.6976 O.2       1 <0>        -0.4381
     27 C20         3.8606   -0.9742    3.0923 C.3       1 <0>        -0.2244
     28 C21         5.2778   -1.0381    2.5194 C.3       1 <0>        -0.1494
     29 C22         4.8801   -1.9519    3.6802 C.3       1 <0>        -0.1515
     30 C23         0.6544   -2.9093    0.9579 C.3       1 <0>        -0.1512
     31 C24        -0.8890   -4.5072    2.0947 C.ar      1 <0>        -0.0447
     32 C25         0.2181   -5.1404    2.6302 C.ar      1 <0>        -0.1096
     33 C26         0.7493   -6.2515    2.0073 C.ar      1 <0>        -0.0992
     34 C27         0.1680   -6.7354    0.8367 C.ar      1 <0>        -0.0472
     35 C28        -0.9473   -6.0935    0.3018 C.ar      1 <0>        -0.1041
     36 C29        -1.4732   -4.9863    0.9360 C.ar      1 <0>        -0.1196
     37 C30         0.7348   -7.9291    0.1624 C.ar      1 <0>        -0.0939
     38 C31         0.1616   -8.4094   -1.0059 C.ar      1 <0>        -0.0535
     39 C32         0.7369   -9.5432   -1.6051 C.ar      1 <0>        -0.0970
     40 C33         0.2121  -10.0870   -2.7898 C.ar      1 <0>        -0.0979
     41 C34         0.7957  -11.1859   -3.3420 C.ar      1 <0>        -0.1139
     42 C35         1.9076  -11.7793   -2.7474 C.ar      1 <0>        -0.1009
     43 C36         2.4418  -11.2790   -1.6000 C.ar      1 <0>        -0.0922
     44 C37         1.8681  -10.1452   -0.9985 C.ar      1 <0>         0.1234
     45 N1          2.3763   -9.6355    0.1284 N.ar      1 <0>        -0.4697
     46 C38         1.8584   -8.5773    0.6988 C.ar      1 <0>         0.1423
     47 H6          2.7881    1.5373    1.5549 H         1 <0>         0.0568
     48 H7          1.7596    2.0775    0.2064 H         1 <0>         0.0591
     49 H8          1.0687    1.9008    1.8372 H         1 <0>         0.0588
     50 H9         -0.4384    0.9521    0.1596 H         1 <0>         0.0710
     51 H10        -0.0136   -0.5541   -0.7071 H         1 <0>         0.0684
     52 H11        -3.1980   -0.0443    0.7413 H         1 <0>         0.0688
     53 H12        -2.6014   -0.4872   -0.8704 H         1 <0>         0.0772
     54 H13        -5.0200   -1.0146   -0.5892 H         1 <0>         0.0857
     55 H14        -4.0511   -2.4844   -0.8775 H         1 <0>         0.0881
     56 H15        -6.7620   -1.8591    0.7994 H         1 <0>         0.1348
     57 H16        -5.0953   -2.0695    4.3324 H         1 <0>         0.0991
     58 H17        -5.8504   -3.6631    4.5636 H         1 <0>         0.0950
     59 H18        -3.3856   -3.7365    3.9355 H         1 <0>         0.0934
     60 H19        -4.4564   -4.6532    2.8452 H         1 <0>         0.0819
     61 H20        -0.7064   -1.5453    3.8066 H         1 <0>         0.0720
     62 H21         0.4408   -2.9114    3.7345 H         1 <0>         0.0724
     63 H22         3.5978   -0.1013    3.6898 H         1 <0>         0.1213
     64 H23         5.4040   -1.4964    1.5385 H         1 <0>         0.1001
     65 H24         5.9477   -0.2070    2.7398 H         1 <0>         0.1036
     66 H25         5.2883   -1.7221    4.6644 H         1 <0>         0.1029
     67 H26         4.7446   -3.0115    3.4630 H         1 <0>         0.1036
     68 H27         1.2852   -2.5143    0.1616 H         1 <0>         0.0475
     69 H28         1.1977   -3.6815    1.5025 H         1 <0>         0.0838
     70 H29        -0.2503   -3.3374    0.5262 H         1 <0>         0.0684
     71 H30         0.6680   -4.7643    3.5371 H         1 <0>         0.1246
     72 H31         1.6139   -6.7449    2.4260 H         1 <0>         0.1252
     73 H32        -1.4016   -6.4642   -0.6051 H         1 <0>         0.1217
     74 H33        -2.3400   -4.4904    0.5246 H         1 <0>         0.1253
     75 H34        -0.7007   -7.9269   -1.4418 H         1 <0>         0.1408
     76 H35        -0.6495   -9.6359   -3.2594 H         1 <0>         0.1305
     77 H36         0.3916  -11.6035   -4.2523 H         1 <0>         0.1291
     78 H37         2.3526  -12.6508   -3.2045 H         1 <0>         0.1313
     79 H38         3.3036  -11.7518   -1.1526 H         1 <0>         0.1363
     80 H39         2.3034   -8.1965    1.6062 H         1 <0>         0.1606
@<TRIPOS>BOND
     1    1    2 1
     2    1   47 1
     3    1   48 1
     4    1   49 1
     5    2    3 1
     6    2   23 1
     7    2    4 1
     8    4    5 1
     9    4   50 1
    10    4   51 1
    11    5    6 1
    12    5   22 1
    13    5    7 1
    14    7    8 1
    15    7   18 1
    16    7    9 1
    17    9   10 1
    18    9   52 1
    19    9   53 1
    20   10   11 1
    21   10   54 1
    22   10   55 1
    23   11   17 1
    24   11   12 2
    25   12   13 1
    26   12   56 1
    27   13   14 2
    28   13   15 1
    29   15   16 1
    30   15   57 1
    31   15   58 1
    32   16   17 1
    33   16   59 1
    34   16   60 1
    35   17   18 2
    36   18   19 1
    37   19   20 1
    38   19   21 1
    39   19   31 1
    40   21   22 1
    41   21   61 1
    42   21   62 1
    43   22   23 1
    44   22   30 1
    45   23   24 1
    46   23   25 1
    47   25   26 2
    48   25   27 1
    49   27   29 1
    50   27   28 1
    51   27   63 1
    52   28   29 1
    53   28   64 1
    54   28   65 1
    55   29   66 1
    56   29   67 1
    57   30   68 1
    58   30   69 1
    59   30   70 1
    60   31   36 ar
    61   31   32 ar
    62   32   33 ar
    63   32   71 1
    64   33   34 ar
    65   33   72 1
    66   34   35 ar
    67   34   37 1
    68   35   36 ar
    69   35   73 1
    70   36   74 1
    71   37   46 ar
    72   37   38 ar
    73   38   39 ar
    74   38   75 1
    75   39   44 ar
    76   39   40 ar
    77   40   41 ar
    78   40   76 1
    79   41   42 ar
    80   41   77 1
    81   42   43 ar
    82   42   78 1
    83   43   44 ar
    84   43   79 1
    85   44   45 ar
    86   45   46 ar
    87   46   80 1
@<TRIPOS>MOLECULE
CHEMBL101852
   49    53     0     0     0
SMALL
USER_CHARGES

@<TRIPOS>ATOM
      1 C1         -0.0183    1.5013    0.0103 C.3       1 <0>        -0.1148
      2 C2          0.0021   -0.0041    0.0020 C.2       1 <0>        -0.0264
      3 C3         -0.0959   -0.5736   -1.2023 C.2       1 <0>        -0.1761
      4 C4         -0.0606   -2.0665   -1.3640 C.3       1 <0>         0.2158
      5 N1          0.7665   -2.6362   -0.2948 N.pl3     1 <0>        -0.7355
      6 C5          0.6026   -2.1557    1.0055 C.ar      1 <0>         0.2175
      7 C6          0.1307   -0.8368    1.2061 C.ar      1 <0>        -0.0599
      8 C7         -0.2592   -0.4718    2.4947 C.ar      1 <0>        -0.0625
      9 C8          0.1140   -1.2917    3.5655 C.ar      1 <0>        -0.0844
     10 C9          0.7622   -2.5067    3.3564 C.ar      1 <0>        -0.0651
     11 C10         0.9917   -2.9442    2.0711 C.ar      1 <0>        -0.1757
     12 C11        -0.1748   -0.8688    4.9573 C.ar      1 <0>        -0.1171
     13 C12         0.2390   -1.6363    6.0405 C.ar      1 <0>        -0.0755
     14 C13        -0.0440   -1.2206    7.3275 C.ar      1 <0>        -0.1520
     15 C14        -0.7350   -0.0410    7.5398 C.ar      1 <0>        -0.0812
     16 C15        -1.1483    0.7275    6.4697 C.ar      1 <0>        -0.1499
     17 C16        -0.8697    0.3225    5.1704 C.ar      1 <0>         0.1471
     18 O1         -1.2661    1.0752    4.1348 O.3       1 <0>        -0.3129
     19 C17        -1.0668    0.7615    2.7719 C.3       1 <0>         0.2109
     20 C18        -2.4236    0.6032    2.1354 C.ar      1 <0>         0.1160
     21 C19        -3.5610    0.7504    2.9064 C.ar      1 <0>        -0.1339
     22 C20        -4.8048    0.6028    2.3116 C.ar      1 <0>        -0.0668
     23 C21        -4.8584    0.3113    0.9574 C.ar      1 <0>        -0.1372
     24 C22        -3.6777    0.1783    0.2496 C.ar      1 <0>         0.1252
     25 N2         -2.5116    0.3310    0.8481 N.ar      1 <0>        -0.4293
     26 Br1        -3.7351   -0.2198   -1.5982 Br        1 <0>        -0.0020
     27 C23         0.5456   -2.4218   -2.7227 C.3       1 <0>        -0.1521
     28 C24        -1.4785   -2.6314   -1.2750 C.3       1 <0>        -0.1533
     29 H1          0.6038    1.8686    0.8264 H         1 <0>         0.0560
     30 H2          0.3682    1.8751   -0.9378 H         1 <0>         0.0657
     31 H3         -1.0418    1.8500    0.1483 H         1 <0>         0.0762
     32 H4         -0.1995    0.0596   -2.0697 H         1 <0>         0.1186
     33 H5          1.4135   -3.3333   -0.4874 H         1 <0>         0.4010
     34 H6          1.0827   -3.1049    4.1952 H         1 <0>         0.1296
     35 H7          1.4716   -3.8963    1.8943 H         1 <0>         0.1277
     36 H8          0.7832   -2.5555    5.8840 H         1 <0>         0.1275
     37 H9          0.2734   -1.8178    8.1693 H         1 <0>         0.1266
     38 H10        -0.9491    0.2815    8.5479 H         1 <0>         0.1309
     39 H11        -1.6912    1.6459    6.6372 H         1 <0>         0.1329
     40 H12        -0.5729    1.6357    2.3384 H         1 <0>         0.1241
     41 H13        -3.4821    0.9773    3.9593 H         1 <0>         0.1487
     42 H14        -5.7104    0.7120    2.8898 H         1 <0>         0.1473
     43 H15        -5.8100    0.1893    0.4615 H         1 <0>         0.1459
     44 H16         1.5599   -2.0272   -2.7823 H         1 <0>         0.0624
     45 H17         0.5699   -3.5055   -2.8374 H         1 <0>         0.0611
     46 H18        -0.0612   -1.9860   -3.5164 H         1 <0>         0.0729
     47 H19        -2.0925   -2.1980   -2.0645 H         1 <0>         0.0684
     48 H20        -1.4461   -3.7145   -1.3930 H         1 <0>         0.0517
     49 H21        -1.9076   -2.3844   -0.3039 H         1 <0>         0.0561
@<TRIPOS>BOND
     1    1    2 1
     2    1   29 1
     3    1   30 1
     4    1   31 1
     5    2    7 1
     6    2    3 2
     7    3    4 1
     8    3   32 1
     9    4    5 1
    10    4   27 1
    11    4   28 1
    12    5    6 1
    13    5   33 1
    14    6   11 ar
    15    6    7 ar
    16    7    8 ar
    17    8   19 1
    18    8    9 ar
    19    9   10 ar
    20    9   12 1
    21   10   11 ar
    22   10   34 1
    23   11   35 1
    24   12   17 ar
    25   12   13 ar
    26   13   14 ar
    27   13   36 1
    28   14   15 ar
    29   14   37 1
    30   15   16 ar
    31   15   38 1
    32   16   17 ar
    33   16   39 1
    34   17   18 1
    35   18   19 1
    36   19   20 1
    37   19   40 1
    38   20   25 ar
    39   20   21 ar
    40   21   22 ar
    41   21   41 1
    42   22   23 ar
    43   22   42 1
    44   23   24 ar
    45   23   43 1
    46   24   25 ar
    47   24   26 1
    48   27   44 1
    49   27   45 1
    50   27   46 1
    51   28   47 1
    52   28   48 1
    53   28   49 1
@<TRIPOS>MOLECULE
CHEMBL101852__1
   49    53     0     0     0
SMALL
USER_CHARGES

@<TRIPOS>ATOM
      1 C1         -0.0183    1.5015    0.0103 C.3       1 <0>        -0.1235
      2 C2          0.0021   -0.0041    0.0020 C.2       1 <0>        -0.0651
      3 C3         -0.0969   -0.5781   -1.2004 C.2       1 <0>        -0.1728
      4 C4         -0.0760   -2.0700   -1.3627 C.3       1 <0>         0.2117
      5 N1          0.7156   -2.6605   -0.2795 N.pl3     1 <0>        -0.7359
      6 C5          0.5622   -2.1689    1.0164 C.ar      1 <0>         0.2185
      7 C6          0.1310   -0.8339    1.2101 C.ar      1 <0>        -0.0853
      8 C7         -0.1897   -0.4345    2.5001 C.ar      1 <0>        -0.0562
      9 C8          0.1023   -1.2862    3.5772 C.ar      1 <0>        -0.0645
     10 C9          0.6969   -2.5258    3.3742 C.ar      1 <0>        -0.0587
     11 C10         0.9191   -2.9667    2.0878 C.ar      1 <0>        -0.1774
     12 C11        -0.2809   -0.8643    4.9459 C.ar      1 <0>        -0.0657
     13 C12         0.2552   -1.4679    6.0753 C.ar      1 <0>        -0.0822
     14 C13        -0.1313   -1.0345    7.3300 C.ar      1 <0>        -0.1358
     15 C14        -1.0449   -0.0040    7.4627 C.ar      1 <0>        -0.0950
     16 C15        -1.5830    0.6040    6.3426 C.ar      1 <0>        -0.1359
     17 C16        -1.2053    0.1776    5.0838 C.ar      1 <0>         0.1232
     18 O1         -1.7176    0.7367    3.9581 O.3       1 <0>        -0.3034
     19 C17        -0.8245    0.8864    2.8440 C.3       1 <0>         0.1945
     20 C18         0.2427    1.8736    3.2412 C.ar      1 <0>         0.1066
     21 C19         0.3249    3.0893    2.5892 C.ar      1 <0>        -0.1431
     22 C20         1.3102    3.9910    2.9617 C.ar      1 <0>        -0.0673
     23 C21         2.1799    3.6347    3.9807 C.ar      1 <0>        -0.1341
     24 C22         2.0369    2.4002    4.5877 C.ar      1 <0>         0.1265
     25 N2          1.0836    1.5694    4.2103 N.ar      1 <0>        -0.4261
     26 Br1         3.2162    1.9001    5.9787 Br        1 <0>        -0.0020
     27 C23        -1.5048   -2.6148   -1.3117 C.3       1 <0>        -0.1579
     28 C24         0.5549   -2.4300   -2.7101 C.3       1 <0>        -0.1528
     29 H1          0.8681    1.8741    0.5236 H         1 <0>         0.0694
     30 H2         -0.0263    1.8705   -1.0153 H         1 <0>         0.0729
     31 H3         -0.9116    1.8500    0.5287 H         1 <0>         0.0687
     32 H4         -0.1922    0.0554   -2.0701 H         1 <0>         0.1245
     33 H5          1.3383   -3.3850   -0.4611 H         1 <0>         0.4025
     34 H6          0.9809   -3.1383    4.2164 H         1 <0>         0.1301
     35 H7          1.3713   -3.9330    1.9133 H         1 <0>         0.1274
     36 H8          0.9719   -2.2696    5.9783 H         1 <0>         0.1233
     37 H9          0.2831   -1.5028    8.2110 H         1 <0>         0.1228
     38 H10        -1.3408    0.3283    8.4465 H         1 <0>         0.1254
     39 H11        -2.2954    1.4078    6.4538 H         1 <0>         0.1258
     40 H12        -1.4128    1.2650    2.0184 H         1 <0>         0.1391
     41 H13        -0.3694    3.3339    1.7990 H         1 <0>         0.1458
     42 H14         1.3982    4.9483    2.4694 H         1 <0>         0.1490
     43 H15         2.9594    4.3123    4.2964 H         1 <0>         0.1471
     44 H16        -2.0914   -2.1721   -2.1166 H         1 <0>         0.0664
     45 H17        -1.4850   -3.6982   -1.4299 H         1 <0>         0.0603
     46 H18        -1.9559   -2.3622   -0.3521 H         1 <0>         0.0580
     47 H19         1.5746   -2.0469   -2.7477 H         1 <0>         0.0627
     48 H20         0.5693   -3.5137   -2.8265 H         1 <0>         0.0639
     49 H21        -0.0301   -1.9858   -3.5154 H         1 <0>         0.0747
@<TRIPOS>BOND
     1    1    2 1
     2    1   29 1
     3    1   30 1
     4    1   31 1
     5    2    7 1
     6    2    3 2
     7    3    4 1
     8    3   32 1
     9    4    5 1
    10    4   27 1
    11    4   28 1
    12    5    6 1
    13    5   33 1
    14    6   11 ar
    15    6    7 ar
    16    7    8 ar
    17    8   19 1
    18    8    9 ar
    19    9   10 ar
    20    9   12 1
    21   10   11 ar
    22   10   34 1
    23   11   35 1
    24   12   17 ar
    25   12   13 ar
    26   13   14 ar
    27   13   36 1
    28   14   15 ar
    29   14   37 1
    30   15   16 ar
    31   15   38 1
    32   16   17 ar
    33   16   39 1
    34   17   18 1
    35   18   19 1
    36   19   20 1
    37   19   40 1
    38   20   25 ar
    39   20   21 ar
    40   21   22 ar
    41   21   41 1
    42   22   23 ar
    43   22   42 1
    44   23   24 ar
    45   23   43 1
    46   24   25 ar
    47   24   26 1
    48   27   44 1
    49   27   45 1
    50   27   46 1
    51   28   47 1
    52   28   48 1
    53   28   49 1
@<TRIPOS>MOLECULE
CHEMBL232434
   71    76     0     0     0
SMALL
USER_CHARGES

@<TRIPOS>ATOM
      1 C1          0.1113    1.6111    0.2974 C.3       1 <0>        -0.1532
      2 C2          0.1783    0.0830    0.2624 C.3       1 <0>        -0.0359
      3 C3         -1.2257   -0.4962    0.2593 C.3       1 <0>        -0.0982
      4 C4         -1.9864    0.1513    1.4273 C.3       1 <0>        -0.0099
      5 H1         -2.9472   -0.3486    1.5504 H         1 <0>         0.0994
      6 C5         -1.1978    0.0370    2.7131 C.2       1 <0>        -0.0902
      7 C6         -1.8514   -0.2821    3.8295 C.2       1 <0>        -0.1171
      8 C7         -3.3419   -0.5155    3.8297 C.3       1 <0>        -0.0776
      9 C8         -3.6526   -1.7155    4.7294 C.3       1 <0>        -0.1660
     10 C9         -2.9777   -1.5506    6.0642 C.2       1 <0>         0.3860
     11 O1         -3.5430   -1.9334    7.0689 O.2       1 <0>        -0.4630
     12 C10        -1.7045   -0.9623    6.1709 C.2       1 <0>        -0.2231
     13 C11        -1.1268   -0.3819    5.0986 C.2       1 <0>        -0.0248
     14 C12         0.2702    0.1878    5.1484 C.3       1 <0>         0.0934
     15 O2          0.9175   -0.1495    3.9210 O.3       1 <0>        -0.3647
     16 C13         0.2914    0.2897    2.7265 C.3       1 <0>         0.1355
     17 H2          0.4718    1.3574    2.6023 H         1 <0>         0.0871
     18 C14         0.8916   -0.4446    1.5354 C.3       1 <0>        -0.0776
     19 H3          0.7637   -1.5226    1.6334 H         1 <0>         0.0889
     20 C15         2.3555   -0.0838    1.2474 C.3       1 <0>        -0.1087
     21 C16         2.5139   -0.4327   -0.2563 C.3       1 <0>        -0.1459
     22 C17         1.0947   -0.3716   -0.8712 C.3       1 <0>         0.2582
     23 C18         0.6897   -1.7031   -1.3507 C.1       1 <0>        -0.1620
     24 C19         0.3666   -2.7650   -1.7331 C.1       1 <0>        -0.1212
     25 C20        -0.0274   -4.0604   -2.1995 C.ar      1 <0>        -0.0367
     26 C21        -1.1200   -4.7210   -1.6262 C.ar      1 <0>        -0.0530
     27 C22        -1.4601   -5.9707   -2.1134 C.ar      1 <0>        -0.1687
     28 C23        -0.7166   -6.5219   -3.1415 C.ar      1 <0>         0.1068
     29 N1          0.3085   -5.8759   -3.6626 N.ar      1 <0>        -0.4805
     30 C24         0.6677   -4.6824   -3.2367 C.ar      1 <0>         0.1251
     31 O3          1.0606    0.5725   -1.9434 O.3       1 <0>        -0.5346
     32 C25        -2.2215    1.6076    1.1190 C.ar      1 <0>        -0.1177
     33 C26        -2.6191    1.9888   -0.1494 C.ar      1 <0>        -0.0629
     34 C27        -2.8354    3.3225   -0.4354 C.ar      1 <0>        -0.1918
     35 C28        -2.6532    4.2815    0.5529 C.ar      1 <0>         0.2148
     36 C29        -2.2538    3.8951    1.8260 C.ar      1 <0>        -0.1956
     37 C30        -2.0446    2.5592    2.1067 C.ar      1 <0>        -0.0760
     38 N2         -2.8706    5.6313    0.2670 N.pl3     1 <0>        -0.6385
     39 C31        -3.4028    6.0268   -1.0393 C.3       1 <0>         0.0924
     40 C32        -2.5666    6.6514    1.2735 C.3       1 <0>         0.0886
     41 H4          1.1112    2.0220    0.1572 H         1 <0>         0.0513
     42 H5         -0.5418    1.9645   -0.5005 H         1 <0>         0.0767
     43 H6         -0.2831    1.9356    1.2603 H         1 <0>         0.0824
     44 H7         -1.7219   -0.2618   -0.6824 H         1 <0>         0.0801
     45 H8         -1.1819   -1.5764    0.3981 H         1 <0>         0.0696
     46 H9         -3.8503    0.3695    4.2123 H         1 <0>         0.0851
     47 H10        -3.6793   -0.7230    2.8142 H         1 <0>         0.0936
     48 H11        -4.7303   -1.7878    4.8759 H         1 <0>         0.0973
     49 H12        -3.2928   -2.6273    4.2527 H         1 <0>         0.1003
     50 H13        -1.1858   -0.9750    7.1181 H         1 <0>         0.1397
     51 H14         0.2242    1.2714    5.2567 H         1 <0>         0.0766
     52 H15         0.8168   -0.2455    5.9860 H         1 <0>         0.1185
     53 H16         2.5309    0.9786    1.4169 H         1 <0>         0.0765
     54 H17         3.0281   -0.6882    1.8560 H         1 <0>         0.0773
     55 H18         3.1639    0.2948   -0.7426 H         1 <0>         0.0853
     56 H19         2.9263   -1.4357   -0.3662 H         1 <0>         0.0750
     57 H20        -1.6830   -4.2673   -0.8240 H         1 <0>         0.1381
     58 H21        -2.2970   -6.5102   -1.6951 H         1 <0>         0.1426
     59 H22        -0.9796   -7.4973   -3.5234 H         1 <0>         0.1614
     60 H23         1.5102   -4.1827   -3.6918 H         1 <0>         0.1596
     61 H24         1.6240    0.3367   -2.6931 H         1 <0>         0.3802
     62 H25        -2.7602    1.2427   -0.9174 H         1 <0>         0.1220
     63 H26        -3.1455    3.6195   -1.4263 H         1 <0>         0.1220
     64 H27        -2.1108    4.6383    2.5966 H         1 <0>         0.1219
     65 H28        -1.7384    2.2577    3.0975 H         1 <0>         0.1169
     66 H29        -4.4917    6.0484   -0.9967 H         1 <0>         0.0481
     67 H30        -3.0296    7.0175   -1.2988 H         1 <0>         0.0660
     68 H31        -3.0829    5.3088   -1.7945 H         1 <0>         0.0696
     69 H32        -2.2695    6.1669    2.2037 H         1 <0>         0.0774
     70 H33        -1.7528    7.2827    0.9167 H         1 <0>         0.0526
     71 H34        -3.4512    7.2636    1.4492 H         1 <0>         0.0554
@<TRIPOS>BOND
     1    1    2 1
     2    1   41 1
     3    1   42 1
     4    1   43 1
     5    2   18 1
     6    2   22 1
     7    2    3 1
     8    3    4 1
     9    3   44 1
    10    3   45 1
    11    4    5 1
    12    4    6 1
    13    4   32 1
    14    6   16 1
    15    6    7 2
    16    7   13 1
    17    7    8 1
    18    8    9 1
    19    8   46 1
    20    8   47 1
    21    9   10 1
    22    9   48 1
    23    9   49 1
    24   10   11 2
    25   10   12 1
    26   12   13 2
    27   12   50 1
    28   13   14 1
    29   14   15 1
    30   14   51 1
    31   14   52 1
    32   15   16 1
    33   16   17 1
    34   16   18 1
    35   18   19 1
    36   18   20 1
    37   20   21 1
    38   20   53 1
    39   20   54 1
    40   21   22 1
    41   21   55 1
    42   21   56 1
    43   22   23 1
    44   22   31 1
    45   23   24 3
    46   24   25 1
    47   25   30 ar
    48   25   26 ar
    49   26   27 ar
    50   26   57 1
    51   27   28 ar
    52   27   58 1
    53   28   29 ar
    54   28   59 1
    55   29   30 ar
    56   30   60 1
    57   31   61 1
    58   32   37 ar
    59   32   33 ar
    60   33   34 ar
    61   33   62 1
    62   34   35 ar
    63   34   63 1
    64   35   36 ar
    65   35   38 1
    66   36   37 ar
    67   36   64 1
    68   37   65 1
    69   38   39 1
    70   38   40 1
    71   39   66 1
    72   39   67 1
    73   39   68 1
    74   40   69 1
    75   40   70 1
    76   40   71 1
@<TRIPOS>MOLECULE
CHEMBL250220
   70    75     0     0     0
SMALL
USER_CHARGES

@<TRIPOS>ATOM
      1 C1         -2.6635    0.3423    0.3998 C.3       1 <0>        -0.1389
      2 C2         -2.6086   -1.1595    0.6872 C.3       1 <0>        -0.0489
      3 C3         -1.3868   -1.4685    1.5135 C.2       1 <0>         0.2948
      4 N1         -0.5501   -0.5671    1.8981 N.2       1 <0>        -0.5004
      5 C4          0.4906   -1.2469    2.6705 C.3       1 <0>         0.0887
      6 C5          1.8723   -1.0576    2.0184 C.3       1 <0>        -0.1026
      7 C6          2.7882   -0.4540    3.1193 C.3       1 <0>        -0.1132
      8 C7          2.1086   -0.9003    4.4211 C.3       1 <0>        -0.0812
      9 H1          2.3246   -1.9490    4.6252 H         1 <0>         0.0812
     10 C8          0.6046   -0.7070    4.0837 C.3       1 <0>        -0.0338
     11 C9         -0.1895   -1.4379    5.1514 C.3       1 <0>        -0.1018
     12 C10         0.0171   -0.6789    6.4712 C.3       1 <0>        -0.0295
     13 H2         -0.4161   -1.2563    7.2879 H         1 <0>         0.1094
     14 C11         1.4913   -0.4575    6.7451 C.2       1 <0>        -0.0533
     15 C12         1.9208   -0.6514    7.9906 C.2       1 <0>        -0.1224
     16 C13         0.9638   -1.0874    9.0763 C.3       1 <0>        -0.0828
     17 C14         1.6459   -2.1659    9.9240 C.3       1 <0>        -0.1660
     18 C15         3.0080   -1.6953   10.3575 C.2       1 <0>         0.3860
     19 O1          3.4221   -2.0029   11.4572 O.2       1 <0>        -0.4678
     20 C16         3.8106   -0.9071    9.5145 C.2       1 <0>        -0.2423
     21 C17         3.3195   -0.4248    8.3527 C.2       1 <0>         0.0229
     22 C18         4.1769    0.3641    7.3937 C.3       1 <0>        -0.0952
     23 C19         3.8864   -0.1480    5.9835 C.3       1 <0>        -0.1113
     24 C20         2.4328   -0.0429    5.6370 C.3       1 <0>        -0.0447
     25 H3          2.2372    1.0016    5.3943 H         1 <0>         0.0931
     26 C21        -0.6759    0.6568    6.3877 C.ar      1 <0>        -0.0154
     27 C22        -1.9380    0.7436    5.8264 C.ar      1 <0>        -0.1315
     28 C23        -2.5784    1.9621    5.7459 C.ar      1 <0>        -0.0519
     29 C24        -1.9494    3.1120    6.2338 C.ar      1 <0>        -0.1775
     30 C25        -0.6742    3.0159    6.8000 C.ar      1 <0>        -0.0684
     31 C26        -0.0491    1.7893    6.8778 C.ar      1 <0>        -0.1403
     32 C27        -2.6257    4.4164    6.1514 C.2       1 <0>         0.3943
     33 O2         -3.7311    4.4963    5.6595 O.2       1 <0>        -0.4595
     34 C28        -1.9443    5.6530    6.6783 C.3       1 <0>        -0.2036
     35 C29         0.2562    0.7827    4.0998 C.3       1 <0>        -0.1520
     36 C30         0.0814   -2.6983    2.6475 C.2       1 <0>         0.0299
     37 C31         0.6946   -3.7219    3.2053 C.2       1 <0>        -0.2014
     38 O3         -1.0720   -2.7060    1.9218 O.3       1 <0>        -0.2845
     39 H4         -1.7695    0.6403   -0.1480 H         1 <0>         0.0647
     40 H5         -3.5472    0.5658   -0.1978 H         1 <0>         0.0671
     41 H6         -2.7128    0.8907    1.3405 H         1 <0>         0.0653
     42 H7         -3.5026   -1.4575    1.2351 H         1 <0>         0.0979
     43 H8         -2.5593   -1.7079   -0.2535 H         1 <0>         0.0979
     44 H9          2.2662   -2.0188    1.6880 H         1 <0>         0.0721
     45 H10         1.7981   -0.3718    1.1744 H         1 <0>         0.0797
     46 H11         3.7954   -0.8649    3.0503 H         1 <0>         0.0728
     47 H12         2.8092    0.6336    3.0491 H         1 <0>         0.0746
     48 H13        -1.2473   -1.4439    4.8883 H         1 <0>         0.0709
     49 H14         0.1751   -2.4604    5.2503 H         1 <0>         0.0788
     50 H15         0.7101   -0.2339    9.7050 H         1 <0>         0.0832
     51 H16         0.0591   -1.4946    8.6249 H         1 <0>         0.0915
     52 H17         1.0375   -2.3725   10.8044 H         1 <0>         0.0956
     53 H18         1.7486   -3.0774    9.3352 H         1 <0>         0.0997
     54 H19         4.8288   -0.6854    9.7984 H         1 <0>         0.1359
     55 H20         3.9282    1.4232    7.4609 H         1 <0>         0.0891
     56 H21         5.2302    0.2152    7.6314 H         1 <0>         0.0866
     57 H22         4.4704    0.4310    5.2682 H         1 <0>         0.0798
     58 H23         4.1835   -1.1947    5.9177 H         1 <0>         0.0680
     59 H24        -2.4224   -0.1453    5.4501 H         1 <0>         0.1268
     60 H25        -3.5629    2.0284    5.3070 H         1 <0>         0.1319
     61 H26        -0.1819    3.8994    7.1785 H         1 <0>         0.1336
     62 H27         0.9338    1.7127    7.3187 H         1 <0>         0.1304
     63 H28        -0.9665    5.3862    7.0792 H         1 <0>         0.0829
     64 H29        -1.8211    6.3728    5.8690 H         1 <0>         0.0950
     65 H30        -2.5525    6.0946    7.4678 H         1 <0>         0.0949
     66 H31        -0.8260    0.9033    4.0507 H         1 <0>         0.0687
     67 H32         0.6306    1.2335    5.0189 H         1 <0>         0.0795
     68 H33         0.7157    1.2727    3.2414 H         1 <0>         0.0557
     69 H34         1.6076   -3.5671    3.7609 H         1 <0>         0.1348
     70 H35         0.2843   -4.7161    3.1069 H         1 <0>         0.1167
@<TRIPOS>BOND
     1    1    2 1
     2    1   39 1
     3    1   40 1
     4    1   41 1
     5    2    3 1
     6    2   42 1
     7    2   43 1
     8    3   38 1
     9    3    4 2
    10    4    5 1
    11    5   10 1
    12    5    6 1
    13    5   36 1
    14    6    7 1
    15    6   44 1
    16    6   45 1
    17    7    8 1
    18    7   46 1
    19    7   47 1
    20    8    9 1
    21    8   24 1
    22    8   10 1
    23   10   11 1
    24   10   35 1
    25   11   12 1
    26   11   48 1
    27   11   49 1
    28   12   13 1
    29   12   14 1
    30   12   26 1
    31   14   24 1
    32   14   15 2
    33   15   21 1
    34   15   16 1
    35   16   17 1
    36   16   50 1
    37   16   51 1
    38   17   18 1
    39   17   52 1
    40   17   53 1
    41   18   19 2
    42   18   20 1
    43   20   21 2
    44   20   54 1
    45   21   22 1
    46   22   23 1
    47   22   55 1
    48   22   56 1
    49   23   24 1
    50   23   57 1
    51   23   58 1
    52   24   25 1
    53   26   31 ar
    54   26   27 ar
    55   27   28 ar
    56   27   59 1
    57   28   29 ar
    58   28   60 1
    59   29   30 ar
    60   29   32 1
    61   30   31 ar
    62   30   61 1
    63   31   62 1
    64   32   33 2
    65   32   34 1
    66   34   63 1
    67   34   64 1
    68   34   65 1
    69   35   66 1
    70   35   67 1
    71   35   68 1
    72   36   37 2
    73   36   38 1
    74   37   69 1
    75   37   70 1
@<TRIPOS>MOLECULE
CHEMBL188131
   37    39     0     0     0
SMALL
USER_CHARGES

@<TRIPOS>ATOM
      1 C1         -1.7003    2.6696   -1.2317 C.3       1 <0>        -0.1704
      2 C2         -1.2781    1.2335   -0.9149 C.3       1 <0>         0.1569
      3 C3         -0.4931    1.2106    0.3981 C.3       1 <0>        -0.1707
      4 N1         -2.4699    0.3913   -0.7861 N.am      1 <0>        -0.5328
      5 C4         -2.7652   -0.7284   -1.5612 C.ar      1 <0>         0.1005
      6 C5         -2.1087   -1.3593   -2.6030 C.ar      1 <0>        -0.0808
      7 C6         -2.6729   -2.4913   -3.1920 C.ar      1 <0>        -0.0131
      8 C7         -3.8969   -2.9830   -2.7284 C.ar      1 <0>        -0.1158
      9 C8         -4.5474   -2.3523   -1.6909 C.ar      1 <0>        -0.0965
     10 C9         -3.9887   -1.2253   -1.1025 C.ar      1 <0>         0.0940
     11 N2         -4.3967   -0.3923   -0.0647 N.am      1 <0>        -0.6435
     12 C10        -3.4641    0.5635    0.1052 C.2       1 <0>         0.6832
     13 O1         -3.5137    1.4508    0.9364 O.2       1 <0>        -0.5472
     14 C11        -1.9778   -3.1695   -4.3050 C.2       1 <0>         0.0963
     15 C12        -1.0278   -2.6037   -5.1272 C.2       1 <0>        -0.1772
     16 C13        -0.6264   -3.5764   -6.0420 C.2       1 <0>        -0.1074
     17 C14        -1.3394   -4.7258   -5.7643 C.2       1 <0>         0.0561
     18 N3         -2.1626   -4.4670   -4.6916 N.pl3     1 <0>        -0.4144
     19 C15        -3.0846   -5.4214   -4.0709 C.3       1 <0>         0.0552
     20 C16        -1.2362   -5.9703   -6.4651 C.1       1 <0>         0.2766
     21 N4         -1.1543   -6.9576   -7.0211 N.1       1 <0>        -0.4037
     22 H1         -0.8136    3.2962   -1.3276 H         1 <0>         0.0774
     23 H2         -2.2596    2.6860   -2.1671 H         1 <0>         0.0606
     24 H3         -2.3285    3.0498   -0.4261 H         1 <0>         0.0749
     25 H4         -0.6499    0.8534   -1.7205 H         1 <0>         0.1006
     26 H5         -1.1212    1.5907    1.2037 H         1 <0>         0.0750
     27 H6         -0.1923    0.1875    0.6238 H         1 <0>         0.0601
     28 H7          0.3937    1.8372    0.3023 H         1 <0>         0.0774
     29 H8         -1.1636   -0.9768   -2.9591 H         1 <0>         0.1391
     30 H9         -4.3333   -3.8591   -3.1849 H         1 <0>         0.1371
     31 H10        -5.4929   -2.7342   -1.3351 H         1 <0>         0.1364
     32 H11        -0.6607   -1.5894   -5.0732 H         1 <0>         0.1526
     33 H12         0.1074   -3.4532   -6.8248 H         1 <0>         0.1542
     34 H13        -4.0819   -5.2884   -4.4902 H         1 <0>         0.0865
     35 H14        -2.7412   -6.4374   -4.2655 H         1 <0>         0.0877
     36 H15        -3.1167   -5.2486   -2.9952 H         1 <0>         0.0995
     37 H16        -5.2128   -0.4866    0.4510 H         1 <0>         0.4355
@<TRIPOS>BOND
     1    1    2 1
     2    1   22 1
     3    1   23 1
     4    1   24 1
     5    2    3 1
     6    2    4 1
     7    2   25 1
     8    3   26 1
     9    3   27 1
    10    3   28 1
    11    4   12 am
    12    4    5 1
    13    5   10 ar
    14    5    6 ar
    15    6    7 ar
    16    6   29 1
    17    7    8 ar
    18    7   14 1
    19    8    9 ar
    20    8   30 1
    21    9   10 ar
    22    9   31 1
    23   10   11 1
    24   11   12 am
    25   11   37 1
    26   12   13 2
    27   14   18 1
    28   14   15 2
    29   15   16 1
    30   15   32 1
    31   16   17 2
    32   16   33 1
    33   17   18 1
    34   17   20 1
    35   18   19 1
    36   19   34 1
    37   19   35 1
    38   19   36 1
    39   20   21 3
@<TRIPOS>MOLECULE
CHEMBL188131__1
   37    39     0     0     0
SMALL
USER_CHARGES

@<TRIPOS>ATOM
      1 C1          0.0275    1.7689   -0.2638 C.3       1 <0>        -0.1669
      2 C2          0.3861    0.2844   -0.3559 C.3       1 <0>         0.1328
      3 C3          1.5095   -0.0312    0.6336 C.3       1 <0>        -0.1682
      4 N1         -0.7920   -0.5236   -0.0312 N.pl3     1 <0>        -0.4868
      5 C4         -1.4067   -1.4496   -0.8579 C.ar      1 <0>         0.0589
      6 C5         -1.1621   -1.8988   -2.1436 C.ar      1 <0>        -0.1133
      7 C6         -1.9927   -2.8686   -2.7036 C.ar      1 <0>        -0.0042
      8 C7         -3.0676   -3.3831   -1.9675 C.ar      1 <0>        -0.0990
      9 C8         -3.3119   -2.9433   -0.7006 C.ar      1 <0>        -0.0553
     10 C9         -2.4873   -1.9708   -0.1244 C.ar      1 <0>         0.0643
     11 N2         -2.4812   -1.3538    1.0852 N.2       1 <0>        -0.4870
     12 C10        -1.4845   -0.5087    1.1436 C.2       1 <0>         0.4593
     13 O1         -1.1868    0.2680    2.2102 O.3       1 <0>        -0.4402
     14 C11        -1.7390   -3.3536   -4.0750 C.2       1 <0>         0.0961
     15 C12        -2.1744   -4.5510   -4.6009 C.2       1 <0>        -0.1738
     16 C13        -1.7235   -4.6235   -5.9181 C.2       1 <0>        -0.1063
     17 C14        -1.0171   -3.4659   -6.1789 C.2       1 <0>         0.0537
     18 N3         -1.0375   -2.6896   -5.0417 N.pl3     1 <0>        -0.4163
     19 C15        -0.4094   -1.3745   -4.8920 C.3       1 <0>         0.0575
     20 C16        -0.3803   -3.1292   -7.4166 C.1       1 <0>         0.2772
     21 N4          0.1248   -2.8621   -8.3984 N.1       1 <0>        -0.4049
     22 H1          0.9040    2.3701   -0.5054 H         1 <0>         0.0835
     23 H2         -0.7729    1.9938   -0.9688 H         1 <0>         0.0647
     24 H3         -0.3042    2.0005    0.7483 H         1 <0>         0.0648
     25 H4          0.7177    0.0528   -1.3681 H         1 <0>         0.0985
     26 H5          1.1779    0.2004    1.6458 H         1 <0>         0.0756
     27 H6          1.7650   -1.0888    0.5680 H         1 <0>         0.0634
     28 H7          2.3860    0.5700    0.3920 H         1 <0>         0.0792
     29 H8         -0.3333   -1.5004   -2.7099 H         1 <0>         0.1262
     30 H9         -3.7078   -4.1337   -2.4070 H         1 <0>         0.1416
     31 H10        -4.1434   -3.3458   -0.1410 H         1 <0>         0.1391
     32 H11        -1.6245    1.1303    2.2033 H         1 <0>         0.4078
     33 H12        -2.7588   -5.2987   -4.0854 H         1 <0>         0.1556
     34 H13        -1.8953   -5.4362   -6.6083 H         1 <0>         0.1549
     35 H14         0.5746   -1.4914   -4.4381 H         1 <0>         0.0830
     36 H15        -0.3046   -0.9084   -5.8717 H         1 <0>         0.0882
     37 H16        -1.0310   -0.7454   -4.2549 H         1 <0>         0.0962
@<TRIPOS>BOND
     1    1    2 1
     2    1   22 1
     3    1   23 1
     4    1   24 1
     5    2    3 1
     6    2    4 1
     7    2   25 1
     8    3   26 1
     9    3   27 1
    10    3   28 1
    11    4   12 1
    12    4    5 1
    13    5   10 ar
    14    5    6 ar
    15    6    7 ar
    16    6   29 1
    17    7    8 ar
    18    7   14 1
    19    8    9 ar
    20    8   30 1
    21    9   10 ar
    22    9   31 1
    23   10   11 1
    24   11   12 2
    25   12   13 1
    26   13   32 1
    27   14   18 1
    28   14   15 2
    29   15   16 1
    30   15   33 1
    31   16   17 2
    32   16   34 1
    33   17   18 1
    34   17   20 1
    35   18   19 1
    36   19   35 1
    37   19   36 1
    38   19   37 1
    39   20   21 3
@<TRIPOS>MOLECULE
CHEMBL429618
   71    76     0     0     0
SMALL
USER_CHARGES

@<TRIPOS>ATOM
      1 C1          0.1113    1.6111    0.2974 C.3       1 <0>        -0.1530
      2 C2          0.1783    0.0830    0.2624 C.3       1 <0>        -0.0364
      3 C3         -1.2257   -0.4962    0.2593 C.3       1 <0>        -0.0994
      4 C4         -1.9864    0.1513    1.4273 C.3       1 <0>        -0.0098
      5 H1         -2.9472   -0.3486    1.5504 H         1 <0>         0.0997
      6 C5         -1.1978    0.0370    2.7131 C.2       1 <0>        -0.0896
      7 C6         -1.8514   -0.2821    3.8295 C.2       1 <0>        -0.1176
      8 C7         -3.3419   -0.5155    3.8297 C.3       1 <0>        -0.0776
      9 C8         -3.6526   -1.7155    4.7294 C.3       1 <0>        -0.1660
     10 C9         -2.9777   -1.5506    6.0642 C.2       1 <0>         0.3861
     11 O1         -3.5430   -1.9334    7.0689 O.2       1 <0>        -0.4635
     12 C10        -1.7045   -0.9623    6.1709 C.2       1 <0>        -0.2236
     13 C11        -1.1268   -0.3819    5.0986 C.2       1 <0>        -0.0243
     14 C12         0.2702    0.1878    5.1484 C.3       1 <0>         0.0933
     15 O2          0.9175   -0.1495    3.9210 O.3       1 <0>        -0.3645
     16 C13         0.2914    0.2897    2.7265 C.3       1 <0>         0.1355
     17 H2          0.4718    1.3574    2.6023 H         1 <0>         0.0873
     18 C14         0.8916   -0.4446    1.5354 C.3       1 <0>        -0.0780
     19 H3          0.7637   -1.5226    1.6334 H         1 <0>         0.0896
     20 C15         2.3555   -0.0838    1.2474 C.3       1 <0>        -0.1084
     21 C16         2.5139   -0.4327   -0.2563 C.3       1 <0>        -0.1458
     22 C17         1.0947   -0.3716   -0.8712 C.3       1 <0>         0.2580
     23 C18         0.6897   -1.7031   -1.3507 C.1       1 <0>        -0.1426
     24 C19         0.3666   -2.7650   -1.7331 C.1       1 <0>        -0.1156
     25 C20        -0.0274   -4.0604   -2.1995 C.ar      1 <0>         0.2284
     26 C21        -1.1193   -4.7038   -1.6157 C.ar      1 <0>        -0.1460
     27 C22        -1.4878   -5.9547   -2.0778 C.ar      1 <0>        -0.0716
     28 C23        -0.7531   -6.5234   -3.1092 C.ar      1 <0>        -0.1658
     29 C24         0.3180   -5.8301   -3.6421 C.ar      1 <0>         0.1060
     30 N1          0.6458   -4.6377   -3.1880 N.ar      1 <0>        -0.4704
     31 O3          1.0606    0.5725   -1.9434 O.3       1 <0>        -0.5340
     32 C25        -2.2215    1.6076    1.1190 C.ar      1 <0>        -0.1176
     33 C26        -2.6191    1.9888   -0.1494 C.ar      1 <0>        -0.0628
     34 C27        -2.8354    3.3225   -0.4354 C.ar      1 <0>        -0.1917
     35 C28        -2.6532    4.2815    0.5529 C.ar      1 <0>         0.2147
     36 C29        -2.2538    3.8951    1.8260 C.ar      1 <0>        -0.1956
     37 C30        -2.0446    2.5592    2.1067 C.ar      1 <0>        -0.0760
     38 N2         -2.8706    5.6313    0.2670 N.pl3     1 <0>        -0.6386
     39 C31        -3.4028    6.0268   -1.0393 C.3       1 <0>         0.0924
     40 C32        -2.5666    6.6514    1.2735 C.3       1 <0>         0.0886
     41 H4          1.1112    2.0220    0.1572 H         1 <0>         0.0516
     42 H5         -0.5418    1.9645   -0.5005 H         1 <0>         0.0767
     43 H6         -0.2831    1.9356    1.2603 H         1 <0>         0.0823
     44 H7         -1.7219   -0.2618   -0.6824 H         1 <0>         0.0805
     45 H8         -1.1819   -1.5764    0.3981 H         1 <0>         0.0703
     46 H9         -3.8503    0.3695    4.2123 H         1 <0>         0.0850
     47 H10        -3.6793   -0.7230    2.8142 H         1 <0>         0.0937
     48 H11        -4.7303   -1.7878    4.8759 H         1 <0>         0.0972
     49 H12        -3.2928   -2.6273    4.2527 H         1 <0>         0.1004
     50 H13        -1.1858   -0.9750    7.1181 H         1 <0>         0.1396
     51 H14         0.2242    1.2714    5.2567 H         1 <0>         0.0766
     52 H15         0.8168   -0.2455    5.9860 H         1 <0>         0.1184
     53 H16         2.5309    0.9786    1.4169 H         1 <0>         0.0767
     54 H17         3.0281   -0.6882    1.8560 H         1 <0>         0.0776
     55 H18         3.1639    0.2948   -0.7426 H         1 <0>         0.0860
     56 H19         2.9263   -1.4357   -0.3662 H         1 <0>         0.0754
     57 H20        -1.6688   -4.2322   -0.8144 H         1 <0>         0.1387
     58 H21        -2.3282   -6.4773   -1.6455 H         1 <0>         0.1419
     59 H22        -1.0154   -7.4987   -3.4917 H         1 <0>         0.1411
     60 H23         0.8911   -6.2704   -4.4446 H         1 <0>         0.1632
     61 H24         1.6240    0.3367   -2.6931 H         1 <0>         0.3817
     62 H25        -2.7602    1.2427   -0.9174 H         1 <0>         0.1222
     63 H26        -3.1455    3.6195   -1.4263 H         1 <0>         0.1220
     64 H27        -2.1108    4.6383    2.5966 H         1 <0>         0.1218
     65 H28        -1.7384    2.2577    3.0975 H         1 <0>         0.1170
     66 H29        -4.4917    6.0484   -0.9967 H         1 <0>         0.0479
     67 H30        -3.0296    7.0175   -1.2988 H         1 <0>         0.0659
     68 H31        -3.0829    5.3088   -1.7945 H         1 <0>         0.0696
     69 H32        -2.2695    6.1669    2.2037 H         1 <0>         0.0774
     70 H33        -1.7528    7.2827    0.9167 H         1 <0>         0.0525
     71 H34        -3.4512    7.2636    1.4492 H         1 <0>         0.0552
@<TRIPOS>BOND
     1    1    2 1
     2    1   41 1
     3    1   42 1
     4    1   43 1
     5    2   18 1
     6    2   22 1
     7    2    3 1
     8    3    4 1
     9    3   44 1
    10    3   45 1
    11    4    5 1
    12    4    6 1
    13    4   32 1
    14    6   16 1
    15    6    7 2
    16    7   13 1
    17    7    8 1
    18    8    9 1
    19    8   46 1
    20    8   47 1
    21    9   10 1
    22    9   48 1
    23    9   49 1
    24   10   11 2
    25   10   12 1
    26   12   13 2
    27   12   50 1
    28   13   14 1
    29   14   15 1
    30   14   51 1
    31   14   52 1
    32   15   16 1
    33   16   17 1
    34   16   18 1
    35   18   19 1
    36   18   20 1
    37   20   21 1
    38   20   53 1
    39   20   54 1
    40   21   22 1
    41   21   55 1
    42   21   56 1
    43   22   23 1
    44   22   31 1
    45   23   24 3
    46   24   25 1
    47   25   30 ar
    48   25   26 ar
    49   26   27 ar
    50   26   57 1
    51   27   28 ar
    52   27   58 1
    53   28   29 ar
    54   28   59 1
    55   29   30 ar
    56   29   60 1
    57   31   61 1
    58   32   37 ar
    59   32   33 ar
    60   33   34 ar
    61   33   62 1
    62   34   35 ar
    63   34   63 1
    64   35   36 ar
    65   35   38 1
    66   36   37 ar
    67   36   64 1
    68   37   65 1
    69   38   39 1
    70   38   40 1
    71   39   66 1
    72   39   67 1
    73   39   68 1
    74   40   69 1
    75   40   70 1
    76   40   71 1
@<TRIPOS>MOLECULE
CHEMBL25469
   32    34     0     0     0
SMALL
USER_CHARGES

@<TRIPOS>ATOM
      1 C1         -0.0187    1.5258    0.0104 C.3       1 <0>        -0.1442
      2 C2          0.0021   -0.0041    0.0020 C.3       1 <0>         0.1484
      3 C3         -1.4115   -0.5288    0.0289 C.ar      1 <0>        -0.1411
      4 C4         -2.4374    0.1742   -0.5575 C.ar      1 <0>        -0.0555
      5 C5         -3.7380   -0.3367   -0.5196 C.ar      1 <0>        -0.0185
      6 C6         -3.9890   -1.5569    0.1127 C.ar      1 <0>        -0.0534
      7 C7         -2.9552   -2.2551    0.6995 C.ar      1 <0>        -0.1228
      8 C8         -1.6653   -1.7443    0.6600 C.ar      1 <0>         0.1391
      9 N1         -0.6000   -2.4316    1.2502 N.pl3     1 <0>        -0.6077
     10 C9          0.5620   -1.7834    1.4722 C.2       1 <0>         0.4999
     11 O1          0.6935   -0.4804    1.1602 O.3       1 <0>        -0.2746
     12 S1          1.8841   -2.6270    2.1589 S.2       1 <0>        -0.4841
     13 C10        -4.8452    0.4123   -1.1475 C.2       1 <0>        -0.0934
     14 C11        -6.1894    0.0849   -1.2137 C.2       1 <0>        -0.1526
     15 C12        -7.0439    0.9397   -1.8532 C.2       1 <0>        -0.0735
     16 C13        -6.5298    2.1015   -2.4107 C.2       1 <0>        -0.1249
     17 S2         -4.7950    1.9751   -2.0088 S.3       1 <0>         0.1648
     18 C14        -7.2155    3.1382   -3.1218 C.1       1 <0>         0.2877
     19 N2         -7.7594    3.9606   -3.6860 N.1       1 <0>        -0.3865
     20 C15         0.7121   -0.5002   -1.2592 C.3       1 <0>        -0.1715
     21 H1          1.0039    1.9031    0.0027 H         1 <0>         0.0845
     22 H2         -0.5459    1.8868   -0.8726 H         1 <0>         0.0894
     23 H3         -0.5289    1.8773    0.9072 H         1 <0>         0.0760
     24 H4         -2.2393    1.1174   -1.0449 H         1 <0>         0.1419
     25 H5         -4.9932   -1.9532    0.1421 H         1 <0>         0.1455
     26 H6         -3.1487   -3.1981    1.1891 H         1 <0>         0.1467
     27 H7         -6.5557   -0.8285   -0.7688 H         1 <0>         0.1500
     28 H8         -8.0979    0.7147   -1.9233 H         1 <0>         0.1509
     29 H9          1.7350   -0.1238   -1.2722 H         1 <0>         0.0857
     30 H10         0.7259   -1.5901   -1.2634 H         1 <0>         0.0622
     31 H11         0.1812   -0.1401   -2.1405 H         1 <0>         0.0875
     32 H12        -0.6958   -3.3646    1.4977 H         1 <0>         0.4440
@<TRIPOS>BOND
     1    1    2 1
     2    1   21 1
     3    1   22 1
     4    1   23 1
     5    2   11 1
     6    2    3 1
     7    2   20 1
     8    3    8 ar
     9    3    4 ar
    10    4    5 ar
    11    4   24 1
    12    5    6 ar
    13    5   13 1
    14    6    7 ar
    15    6   25 1
    16    7    8 ar
    17    7   26 1
    18    8    9 1
    19    9   10 1
    20    9   32 1
    21   10   11 1
    22   10   12 2
    23   13   17 1
    24   13   14 2
    25   14   15 1
    26   14   27 1
    27   15   16 2
    28   15   28 1
    29   16   17 1
    30   16   18 1
    31   18   19 3
    32   20   29 1
    33   20   30 1
    34   20   31 1
@<TRIPOS>MOLECULE
CHEMBL71456
   35    37     0     0     0
SMALL
USER_CHARGES

@<TRIPOS>ATOM
      1 C1         -0.8902    1.7056    1.7770 C.3       1 <0>        -0.1448
      2 C2         -0.6796    0.2023    1.5852 C.3       1 <0>         0.1665
      3 C3         -1.9596   -0.4292    1.0983 C.ar      1 <0>        -0.1538
      4 C4         -2.8395    0.2741    0.3099 C.ar      1 <0>        -0.0404
      5 C5         -4.0175   -0.3369   -0.1290 C.ar      1 <0>        -0.0400
      6 C6         -4.2949   -1.6568    0.2348 C.ar      1 <0>        -0.0802
      7 C7         -3.4080   -2.3550    1.0264 C.ar      1 <0>        -0.1396
      8 C8         -2.2399   -1.7445    1.4607 C.ar      1 <0>         0.1733
      9 N1         -1.3253   -2.4299    2.2675 N.am      1 <0>        -0.6683
     10 C9         -0.3735   -1.7347    2.9237 C.2       1 <0>         0.6620
     11 O1          0.4414   -2.3264    3.6036 O.2       1 <0>        -0.4977
     12 O2         -0.3163   -0.3939    2.8338 O.3       1 <0>        -0.3297
     13 C10        -4.9681    0.4123   -0.9760 C.2       1 <0>         0.0547
     14 C11        -5.0561    1.7819   -1.1028 C.2       1 <0>         0.0092
     15 N2         -6.0360    2.0561   -1.9574 N.2       1 <0>        -0.4221
     16 C12        -6.5786    0.9334   -2.3831 C.2       1 <0>         0.2587
     17 N3         -5.9314   -0.1190   -1.7942 N.pl3     1 <0>        -0.4235
     18 C13        -6.2158   -1.5418   -1.9970 C.3       1 <0>         0.0544
     19 C14        -7.6625    0.8310   -3.3133 C.1       1 <0>         0.2919
     20 N4         -8.5224    0.7498   -4.0512 N.1       1 <0>        -0.3645
     21 C15         0.4330   -0.0330    0.5617 C.3       1 <0>        -0.1728
     22 H1          0.0325    2.1584    2.1399 H         1 <0>         0.0801
     23 H2         -1.1670    2.1581    0.8247 H         1 <0>         0.0894
     24 H3         -1.6863    1.8712    2.5029 H         1 <0>         0.0756
     25 H4         -2.6215    1.2945    0.0311 H         1 <0>         0.1464
     26 H5         -5.2046   -2.1303   -0.1039 H         1 <0>         0.1359
     27 H6         -3.6218   -3.3755    1.3078 H         1 <0>         0.1405
     28 H7         -1.3752   -3.3947    2.3544 H         1 <0>         0.4315
     29 H8         -4.4362    2.5065   -0.5956 H         1 <0>         0.1899
     30 H9         -6.8775   -1.8963   -1.2067 H         1 <0>         0.0929
     31 H10        -6.6980   -1.6816   -2.9645 H         1 <0>         0.0954
     32 H11        -5.2836   -2.1060   -1.9707 H         1 <0>         0.1021
     33 H12         1.3577    0.4197    0.9196 H         1 <0>         0.0810
     34 H13         0.5816   -1.1043    0.4264 H         1 <0>         0.0606
     35 H14         0.1524    0.4179   -0.3902 H         1 <0>         0.0859
@<TRIPOS>BOND
     1    1    2 1
     2    1   22 1
     3    1   23 1
     4    1   24 1
     5    2   12 1
     6    2    3 1
     7    2   21 1
     8    3    8 ar
     9    3    4 ar
    10    4    5 ar
    11    4   25 1
    12    5    6 ar
    13    5   13 1
    14    6    7 ar
    15    6   26 1
    16    7    8 ar
    17    7   27 1
    18    8    9 1
    19    9   10 am
    20    9   28 1
    21   10   11 2
    22   10   12 1
    23   13   17 1
    24   13   14 2
    25   14   15 1
    26   14   29 1
    27   15   16 2
    28   16   17 1
    29   16   19 1
    30   17   18 1
    31   18   30 1
    32   18   31 1
    33   18   32 1
    34   19   20 3
    35   21   33 1
    36   21   34 1
    37   21   35 1
@<TRIPOS>MOLECULE
CHEMBL282649
   32    34     0     0     0
SMALL
USER_CHARGES

@<TRIPOS>ATOM
      1 C1         -0.0187    1.5258    0.0104 C.3       1 <0>        -0.1425
      2 C2          0.0021   -0.0041    0.0020 C.3       1 <0>         0.1481
      3 C3         -1.4115   -0.5287    0.0285 C.ar      1 <0>        -0.1391
      4 C4         -2.4385    0.1747   -0.5583 C.ar      1 <0>        -0.0667
      5 C5         -3.7359   -0.3349   -0.5208 C.ar      1 <0>        -0.0167
      6 C6         -3.9880   -1.5521    0.1092 C.ar      1 <0>        -0.0707
      7 C7         -2.9548   -2.2528    0.6973 C.ar      1 <0>        -0.1203
      8 C8         -1.6654   -1.7434    0.6589 C.ar      1 <0>         0.1265
      9 N1         -0.5994   -2.4318    1.2500 N.pl3     1 <0>        -0.6074
     10 C9          0.5626   -1.7835    1.4722 C.2       1 <0>         0.5018
     11 O1          0.6935   -0.4804    1.1602 O.3       1 <0>        -0.2760
     12 S1          1.8849   -2.6267    2.1588 S.2       1 <0>        -0.4912
     13 C10        -4.8485    0.4192   -1.1516 C.2       1 <0>        -0.1470
     14 C11        -6.2098    0.0382   -1.1912 C.2       1 <0>        -0.1076
     15 C12        -6.8709    1.0212   -1.8663 C.2       1 <0>         0.0481
     16 O2         -5.9761    1.9628   -2.2284 O.3       1 <0>        -0.1469
     17 C13        -4.7558    1.6141   -1.7983 C.2       1 <0>         0.0272
     18 C14        -8.2754    1.0485   -2.1441 C.1       1 <0>         0.2826
     19 N2         -9.3896    1.0702   -2.3645 N.1       1 <0>        -0.3663
     20 C15         0.7122   -0.5001   -1.2591 C.3       1 <0>        -0.1710
     21 H1          1.0039    1.9031    0.0027 H         1 <0>         0.0829
     22 H2         -0.5459    1.8868   -0.8726 H         1 <0>         0.0889
     23 H3         -0.5289    1.8773    0.9072 H         1 <0>         0.0754
     24 H4         -2.2404    1.1176   -1.0462 H         1 <0>         0.1406
     25 H5         -4.9928   -1.9472    0.1376 H         1 <0>         0.1407
     26 H6         -3.1498   -3.1957    1.1864 H         1 <0>         0.1425
     27 H7         -6.6417   -0.8571   -0.7689 H         1 <0>         0.1681
     28 H8         -3.8498    2.1838   -1.9430 H         1 <0>         0.2200
     29 H9          1.7351   -0.1238   -1.2720 H         1 <0>         0.0844
     30 H10         0.7260   -1.5900   -1.2634 H         1 <0>         0.0615
     31 H11         0.1814   -0.1400   -2.1404 H         1 <0>         0.0869
     32 H12        -0.6952   -3.3650    1.4969 H         1 <0>         0.4431
@<TRIPOS>BOND
     1    1    2 1
     2    1   21 1
     3    1   22 1
     4    1   23 1
     5    2   11 1
     6    2    3 1
     7    2   20 1
     8    3    8 ar
     9    3    4 ar
    10    4    5 ar
    11    4   24 1
    12    5    6 ar
    13    5   13 1
    14    6    7 ar
    15    6   25 1
    16    7    8 ar
    17    7   26 1
    18    8    9 1
    19    9   10 1
    20    9   32 1
    21   10   11 1
    22   10   12 2
    23   13   17 2
    24   13   14 1
    25   14   15 2
    26   14   27 1
    27   15   16 1
    28   15   18 1
    29   16   17 1
    30   17   28 1
    31   18   19 3
    32   20   29 1
    33   20   30 1
    34   20   31 1
@<TRIPOS>MOLECULE
CHEMBL501080
   45    48     0     0     0
SMALL
USER_CHARGES

@<TRIPOS>ATOM
      1 C1          0.6511   -0.3704   -1.3549 C.3       1 <0>        -0.1576
      2 C2         -0.0994    0.1981   -0.1489 C.3       1 <0>        -0.1143
      3 C3         -1.4333   -0.5336    0.0129 C.3       1 <0>         0.2601
      4 C4         -1.1489   -1.9829    0.2594 C.ar      1 <0>        -0.1390
      5 C5          0.1032   -2.2751    0.7904 C.ar      1 <0>        -0.0583
      6 C6          0.4831   -3.5825    1.0595 C.ar      1 <0>        -0.0788
      7 C7         -0.4094   -4.6195    0.7908 C.ar      1 <0>        -0.0563
      8 C8         -1.6439   -4.3308    0.2687 C.ar      1 <0>        -0.1606
      9 C9         -2.0355   -3.0080   -0.0039 C.ar      1 <0>         0.2068
     10 N1         -3.3056   -2.8680   -0.5173 N.am      1 <0>        -0.6464
     11 C10        -3.9884   -1.8818   -1.0348 C.2       1 <0>         0.4996
     12 O1         -5.0285   -2.1686   -1.5889 O.2       1 <0>        -0.5243
     13 C11        -3.6157   -0.4394   -1.0110 C.3       1 <0>         0.0484
     14 O2         -2.2207   -0.2654   -1.1089 O.3       1 <0>        -0.3418
     15 C12         1.8232   -3.8734    1.6260 C.ar      1 <0>        -0.0033
     16 C13         2.1984   -5.1873    1.8875 C.ar      1 <0>        -0.0768
     17 C14         3.4592   -5.4543    2.4194 C.ar      1 <0>         0.0144
     18 C15         4.3381   -4.4020    2.6866 C.ar      1 <0>        -0.1098
     19 C16         3.9584   -3.0989    2.4242 C.ar      1 <0>         0.1136
     20 C17         2.7098   -2.8309    1.8914 C.ar      1 <0>        -0.1231
     21 F1          4.8113   -2.0839    2.6844 F         1 <0>        -0.1276
     22 C18         3.8521   -6.8042    2.6916 C.1       1 <0>         0.2474
     23 N2          4.1637   -7.8751    2.9075 N.1       1 <0>        -0.3948
     24 C19        -2.1323    0.0221    1.2268 C.2       1 <0>        -0.0669
     25 C20        -2.0956   -0.5028    2.4648 C.2       1 <0>        -0.1786
     26 C21        -2.8848    0.3332    3.2877 C.2       1 <0>        -0.2139
     27 C22        -3.3565    1.3190    2.5034 C.2       1 <0>        -0.0316
     28 O3         -2.8928    1.1286    1.2574 O.3       1 <0>        -0.1663
     29 H1          1.6014    0.1508   -1.4702 H         1 <0>         0.0635
     30 H2          0.8362   -1.4333   -1.1996 H         1 <0>         0.0619
     31 H3          0.0504   -0.2339   -2.2541 H         1 <0>         0.0676
     32 H4          0.5014    0.0615    0.7502 H         1 <0>         0.0869
     33 H5         -0.2845    1.2609   -0.3042 H         1 <0>         0.0850
     34 H6          0.7926   -1.4697    0.9967 H         1 <0>         0.1447
     35 H7         -0.1302   -5.6432    0.9922 H         1 <0>         0.1394
     36 H8         -2.3313   -5.1378    0.0621 H         1 <0>         0.1368
     37 H9         -3.8114   -3.6951   -0.4882 H         1 <0>         0.4023
     38 H10        -4.0975    0.0670   -1.8473 H         1 <0>         0.1453
     39 H11        -3.9653    0.0037   -0.0785 H         1 <0>         0.0989
     40 H12         1.5153   -5.9975    1.6796 H         1 <0>         0.1443
     41 H13         5.3151   -4.6066    3.0989 H         1 <0>         0.1490
     42 H14         2.4201   -1.8113    1.6841 H         1 <0>         0.1461
     43 H15        -1.5656   -1.3925    2.7712 H         1 <0>         0.1496
     44 H16        -3.0731    0.2048    4.3433 H         1 <0>         0.1519
     45 H17        -3.9964    2.1284    2.8224 H         1 <0>         0.2070
@<TRIPOS>BOND
     1    1    2 1
     2    1   29 1
     3    1   30 1
     4    1   31 1
     5    2    3 1
     6    2   32 1
     7    2   33 1
     8    3   14 1
     9    3    4 1
    10    3   24 1
    11    4    9 ar
    12    4    5 ar
    13    5    6 ar
    14    5   34 1
    15    6    7 ar
    16    6   15 1
    17    7    8 ar
    18    7   35 1
    19    8    9 ar
    20    8   36 1
    21    9   10 1
    22   10   11 am
    23   10   37 1
    24   11   12 2
    25   11   13 1
    26   13   14 1
    27   13   38 1
    28   13   39 1
    29   15   20 ar
    30   15   16 ar
    31   16   17 ar
    32   16   40 1
    33   17   18 ar
    34   17   22 1
    35   18   19 ar
    36   18   41 1
    37   19   20 ar
    38   19   21 1
    39   20   42 1
    40   22   23 3
    41   24   28 1
    42   24   25 2
    43   25   26 1
    44   25   43 1
    45   26   27 2
    46   26   44 1
    47   27   28 1
    48   27   45 1
@<TRIPOS>MOLECULE
CHEMBL501080__1
   45    48     0     0     0
SMALL
USER_CHARGES

@<TRIPOS>ATOM
      1 C1         -0.0095    1.5057    0.2499 C.3       1 <0>        -0.1523
      2 C2          0.0021   -0.0041    0.0020 C.3       1 <0>        -0.1145
      3 C3         -1.4333   -0.5336    0.0129 C.3       1 <0>         0.2588
      4 C4         -1.3944   -2.0060   -0.2566 C.ar      1 <0>        -0.1418
      5 C5         -0.2734   -2.4702   -0.9372 C.ar      1 <0>        -0.0612
      6 C6         -0.1231   -3.8158   -1.2419 C.ar      1 <0>        -0.0767
      7 C7         -1.1159   -4.7159   -0.8566 C.ar      1 <0>        -0.0566
      8 C8         -2.2211   -4.2576   -0.1870 C.ar      1 <0>        -0.1598
      9 C9         -2.3803   -2.8951    0.1225 C.ar      1 <0>         0.2071
     10 N1         -3.5430   -2.5787    0.7890 N.am      1 <0>        -0.6467
     11 C10        -4.0065   -1.5099    1.3802 C.2       1 <0>         0.4995
     12 O1         -4.9999   -1.6496    2.0618 O.2       1 <0>        -0.5242
     13 C11        -3.4351   -0.1362    1.2993 C.3       1 <0>         0.0480
     14 O2         -2.0280   -0.1667    1.2220 O.3       1 <0>        -0.3414
     15 C12         1.0795   -4.2908   -1.9695 C.ar      1 <0>        -0.0038
     16 C13         1.2199   -5.6406   -2.2763 C.ar      1 <0>        -0.0767
     17 C14         2.3519   -6.0809   -2.9606 C.ar      1 <0>         0.0144
     18 C15         3.3383   -5.1651   -3.3342 C.ar      1 <0>        -0.1097
     19 C16         3.1922   -3.8254   -3.0261 C.ar      1 <0>         0.1135
     20 C17         2.0673   -3.3844   -2.3516 C.ar      1 <0>        -0.1229
     21 F1          4.1487   -2.9430   -3.3889 F         1 <0>        -0.1276
     22 C18         2.5034   -7.4687   -3.2793 C.1       1 <0>         0.2475
     23 N2          2.6235   -8.5697   -3.5321 N.1       1 <0>        -0.3947
     24 C19        -2.1899    0.1303   -1.1086 C.2       1 <0>        -0.0606
     25 C20        -2.3718   -0.3747   -2.3420 C.2       1 <0>        -0.1809
     26 C21        -3.1328    0.5728   -3.0645 C.2       1 <0>        -0.2132
     27 C22        -3.3704    1.6002   -2.2294 C.2       1 <0>        -0.0337
     28 O3         -2.8019    1.3241   -1.0444 O.3       1 <0>        -0.1649
     29 H1          1.0131    1.8830    0.2422 H         1 <0>         0.0611
     30 H2         -0.5844    1.9983   -0.5342 H         1 <0>         0.0569
     31 H3         -0.4653    1.7114    1.2184 H         1 <0>         0.0678
     32 H4          0.4579   -0.2097   -0.9665 H         1 <0>         0.0871
     33 H5          0.5770   -0.4966    0.7862 H         1 <0>         0.0881
     34 H6          0.4938   -1.7706   -1.2342 H         1 <0>         0.1441
     35 H7         -1.0151   -5.7668   -1.0844 H         1 <0>         0.1396
     36 H8         -2.9869   -4.9590    0.1095 H         1 <0>         0.1370
     37 H9         -4.1631   -3.3236    0.8284 H         1 <0>         0.4023
     38 H10        -3.8301    0.3625    0.4142 H         1 <0>         0.1000
     39 H11        -3.7312    0.4256    2.1853 H         1 <0>         0.1452
     40 H12         0.4547   -6.3449   -1.9850 H         1 <0>         0.1444
     41 H13         4.2163   -5.5041   -3.8641 H         1 <0>         0.1490
     42 H14         1.9561   -2.3360   -2.1174 H         1 <0>         0.1463
     43 H15        -2.0061   -1.3220   -2.7099 H         1 <0>         0.1489
     44 H16        -3.4602    0.4881   -4.0902 H         1 <0>         0.1512
     45 H17        -3.9274    2.4937   -2.4699 H         1 <0>         0.2061
@<TRIPOS>BOND
     1    1    2 1
     2    1   29 1
     3    1   30 1
     4    1   31 1
     5    2    3 1
     6    2   32 1
     7    2   33 1
     8    3   14 1
     9    3    4 1
    10    3   24 1
    11    4    9 ar
    12    4    5 ar
    13    5    6 ar
    14    5   34 1
    15    6    7 ar
    16    6   15 1
    17    7    8 ar
    18    7   35 1
    19    8    9 ar
    20    8   36 1
    21    9   10 1
    22   10   11 am
    23   10   37 1
    24   11   12 2
    25   11   13 1
    26   13   14 1
    27   13   38 1
    28   13   39 1
    29   15   20 ar
    30   15   16 ar
    31   16   17 ar
    32   16   40 1
    33   17   18 ar
    34   17   22 1
    35   18   19 ar
    36   18   41 1
    37   19   20 ar
    38   19   21 1
    39   20   42 1
    40   22   23 3
    41   24   28 1
    42   24   25 2
    43   25   26 1
    44   25   43 1
    45   26   27 2
    46   26   44 1
    47   27   28 1
    48   27   45 1
@<TRIPOS>MOLECULE
CHEMBL1161
   65    69     0     0     0
SMALL
USER_CHARGES

@<TRIPOS>ATOM
      1 C1          2.4975    1.0284    0.8552 C.3       1 <0>        -0.1396
      2 C2          1.8419   -0.3032    0.4836 C.3       1 <0>        -0.0798
      3 H1          2.3875   -0.7730   -0.3347 H         1 <0>         0.0894
      4 C3          0.3615   -0.0726    0.0743 C.3       1 <0>        -0.1089
      5 C4         -0.4006   -0.3445    1.3760 C.3       1 <0>        -0.0899
      6 H2         -0.2894    0.4945    2.0628 H         1 <0>         0.0916
      7 C5         -1.8661   -0.7073    1.2198 C.3       1 <0>        -0.0792
      8 H3         -1.9614   -1.5883    0.5851 H         1 <0>         0.1164
      9 C6         -2.6272    0.4637    0.5951 C.3       1 <0>        -0.1191
     10 C7         -4.0977    0.0795    0.4026 C.3       1 <0>        -0.0938
     11 C8         -4.6478   -0.3687    1.7437 C.2       1 <0>        -0.0284
     12 C9         -5.7700    0.1762    2.1924 C.2       1 <0>        -0.2192
     13 C10        -6.3232   -0.2180    3.4973 C.2       1 <0>         0.4089
     14 O1         -7.3728    0.2514    3.8957 O.2       1 <0>        -0.4571
     15 C11        -5.5777   -1.1934    4.3107 C.2       1 <0>        -0.2084
     16 C12        -4.4627   -1.7295    3.8398 C.2       1 <0>        -0.0679
     17 C13        -3.8884   -1.4180    2.5004 C.3       1 <0>        -0.0077
     18 C14        -2.4164   -1.0157    2.6215 C.3       1 <0>         0.0633
     19 C15        -1.6246   -2.1252    3.3066 C.3       1 <0>         0.1152
     20 H4         -1.9887   -2.2438    4.3271 H         1 <0>         0.0685
     21 C16        -0.1208   -1.8098    3.3443 C.3       1 <0>        -0.1529
     22 C17         0.3432   -1.5933    1.9210 C.3       1 <0>        -0.0643
     23 C18         1.8148   -1.2441    1.7139 C.3       1 <0>         0.1004
     24 C19         2.6142   -2.4908    1.4354 C.2       1 <0>         0.3320
     25 O2          2.0989   -3.5768    1.5506 O.2       1 <0>        -0.3714
     26 C20         4.0568   -2.3823    1.0133 C.3       1 <0>        -0.0957
     27 Cl1         4.6917   -4.0223    0.6156 Cl        1 <0>        -0.1360
     28 O3          2.3306   -0.5705    2.8638 O.3       1 <0>        -0.3108
     29 C21         2.4971   -1.3070    3.9816 C.2       1 <0>         0.5424
     30 O4          2.3144   -2.5091    3.9507 O.2       1 <0>        -0.4632
     31 C22         2.8980   -0.6592    5.2326 C.2       1 <0>        -0.0746
     32 C23         3.1059   -1.2840    6.4298 C.2       1 <0>        -0.0968
     33 C24         3.4741   -0.2874    7.3462 C.2       1 <0>        -0.2278
     34 C25         3.4750    0.8874    6.6777 C.2       1 <0>         0.0155
     35 O5          3.1323    0.6587    5.4035 O.3       1 <0>        -0.1496
     36 C26        -0.0241   -2.8215    1.0858 C.3       1 <0>        -0.1455
     37 O6         -1.8251   -3.3484    2.5954 O.3       1 <0>        -0.5424
     38 Cl2        -2.3143    0.4694    3.6388 Cl        1 <0>        -0.1544
     39 C27        -3.9129   -2.7029    1.6701 C.3       1 <0>        -0.1348
     40 H5          3.4926    0.8431    1.2596 H         1 <0>         0.0614
     41 H6          2.5771    1.6546   -0.0334 H         1 <0>         0.0642
     42 H7          1.8897    1.5361    1.6042 H         1 <0>         0.0674
     43 H8          0.2080    0.9550   -0.2551 H         1 <0>         0.0831
     44 H9          0.0620   -0.7765   -0.7022 H         1 <0>         0.0780
     45 H10        -2.5619    1.3308    1.2524 H         1 <0>         0.0779
     46 H11        -2.1867    0.7083   -0.3715 H         1 <0>         0.0808
     47 H12        -4.6595    0.9419    0.0440 H         1 <0>         0.0841
     48 H13        -4.1739   -0.7354   -0.3173 H         1 <0>         0.0870
     49 H14        -6.2822    0.9161    1.5951 H         1 <0>         0.1381
     50 H15        -5.9397   -1.4706    5.2897 H         1 <0>         0.1396
     51 H16        -3.9367   -2.4359    4.4648 H         1 <0>         0.1262
     52 H17         0.0536   -0.9016    3.9213 H         1 <0>         0.0731
     53 H18         0.4224   -2.6435    3.7891 H         1 <0>         0.1035
     54 H19         4.1311   -1.7411    0.1349 H         1 <0>         0.1254
     55 H20         4.6422   -1.9535    1.8267 H         1 <0>         0.1209
     56 H21         3.0062   -2.3403    6.6316 H         1 <0>         0.1653
     57 H22         3.7118   -0.4317    8.3898 H         1 <0>         0.1636
     58 H23         3.7159    1.8515    7.1007 H         1 <0>         0.2168
     59 H24         0.5159   -2.7921    0.1394 H         1 <0>         0.0361
     60 H25         0.2469   -3.7257    1.6308 H         1 <0>         0.0878
     61 H26        -1.0967   -2.8217    0.8922 H         1 <0>         0.0878
     62 H27        -1.3525   -4.1038    2.9711 H         1 <0>         0.3801
     63 H28        -3.1479   -2.6495    0.8955 H         1 <0>         0.0793
     64 H29        -3.7158   -3.5575    2.3172 H         1 <0>         0.0939
     65 H30        -4.8926   -2.8169    1.2060 H         1 <0>         0.0539
@<TRIPOS>BOND
     1    1    2 1
     2    1   40 1
     3    1   41 1
     4    1   42 1
     5    2    3 1
     6    2   23 1
     7    2    4 1
     8    4    5 1
     9    4   43 1
    10    4   44 1
    11    5    6 1
    12    5   22 1
    13    5    7 1
    14    7    8 1
    15    7   18 1
    16    7    9 1
    17    9   10 1
    18    9   45 1
    19    9   46 1
    20   10   11 1
    21   10   47 1
    22   10   48 1
    23   11   17 1
    24   11   12 2
    25   12   13 1
    26   12   49 1
    27   13   14 2
    28   13   15 1
    29   15   16 2
    30   15   50 1
    31   16   17 1
    32   16   51 1
    33   17   18 1
    34   17   39 1
    35   18   19 1
    36   18   38 1
    37   19   20 1
    38   19   21 1
    39   19   37 1
    40   21   22 1
    41   21   52 1
    42   21   53 1
    43   22   23 1
    44   22   36 1
    45   23   24 1
    46   23   28 1
    47   24   25 2
    48   24   26 1
    49   26   27 1
    50   26   54 1
    51   26   55 1
    52   28   29 1
    53   29   30 2
    54   29   31 1
    55   31   35 1
    56   31   32 2
    57   32   33 1
    58   32   56 1
    59   33   34 2
    60   33   57 1
    61   34   35 1
    62   34   58 1
    63   36   59 1
    64   36   60 1
    65   36   61 1
    66   37   62 1
    67   39   63 1
    68   39   64 1
    69   39   65 1
@<TRIPOS>MOLECULE
CHEMBL429996
   42    44     0     0     0
SMALL
USER_CHARGES

@<TRIPOS>ATOM
      1 C1         -0.0187    1.5258    0.0104 C.3       1 <0>        -0.1503
      2 C2          0.0021   -0.0041    0.0020 C.3       1 <0>        -0.1571
      3 C3         -1.4333   -0.5336    0.0129 C.3       1 <0>         0.1559
      4 C4         -1.4157   -2.0577   -0.1212 C.3       1 <0>        -0.1574
      5 C5         -2.8505   -2.5762   -0.2357 C.3       1 <0>        -0.1503
      6 N1         -2.0815   -0.1618    1.2729 N.pl3     1 <0>        -0.4568
      7 C6         -3.2296    0.6164    1.4006 C.ar      1 <0>         0.0847
      8 C7         -4.0609    1.2376    0.4840 C.ar      1 <0>        -0.0798
      9 C8         -5.1607    1.9651    0.9308 C.ar      1 <0>        -0.0301
     10 C9         -5.4222    2.0665    2.2976 C.ar      1 <0>        -0.0862
     11 C10        -4.5936    1.4479    3.2092 C.ar      1 <0>        -0.0875
     12 C11        -3.4962    0.7212    2.7684 C.ar      1 <0>         0.0814
     13 N2         -2.5021    0.0036    3.4275 N.pl3     1 <0>        -0.5760
     14 H1         -2.4229   -0.1050    4.3882 H         1 <0>         0.4484
     15 C12        -1.6725   -0.5187    2.5049 C.2       1 <0>         0.5042
     16 S1         -0.3020   -1.4861    2.8468 S.2       1 <0>        -0.5826
     17 C13        -6.0547    2.6334   -0.0469 C.ar      1 <0>        -0.0116
     18 C14        -7.1507    3.3653    0.3987 C.ar      1 <0>        -0.0714
     19 C15        -7.9871    3.9909   -0.5247 C.ar      1 <0>         0.0143
     20 C16        -7.7203    3.8794   -1.8913 C.ar      1 <0>        -0.1049
     21 C17        -6.6297    3.1501   -2.3269 C.ar      1 <0>         0.1126
     22 C18        -5.7941    2.5331   -1.4126 C.ar      1 <0>        -0.1183
     23 F1         -6.3754    3.0444   -3.6495 F         1 <0>        -0.1268
     24 C19        -9.1173    4.7455   -0.0733 C.1       1 <0>         0.2464
     25 N3        -10.0139    5.3441    0.2848 N.1       1 <0>        -0.3921
     26 H2          1.0039    1.9031    0.0027 H         1 <0>         0.0629
     27 H3         -0.5459    1.8868   -0.8726 H         1 <0>         0.0526
     28 H4         -0.5289    1.8773    0.9072 H         1 <0>         0.0455
     29 H5          0.5123   -0.3556   -0.8948 H         1 <0>         0.0869
     30 H6          0.5293   -0.3651    0.8851 H         1 <0>         0.1100
     31 H7         -1.9862   -0.1019   -0.8214 H         1 <0>         0.1014
     32 H8         -0.8559   -2.3374   -1.0137 H         1 <0>         0.0869
     33 H9         -0.9406   -2.4942    0.7573 H         1 <0>         0.1101
     34 H10        -3.4103   -2.2964    0.6568 H         1 <0>         0.0454
     35 H11        -3.3256   -2.1397   -1.1142 H         1 <0>         0.0526
     36 H12        -2.8380   -3.6619   -0.3312 H         1 <0>         0.0629
     37 H13        -3.8567    1.1584   -0.5735 H         1 <0>         0.1402
     38 H14        -6.2759    2.6312    2.6422 H         1 <0>         0.1461
     39 H15        -4.7985    1.5285    4.2666 H         1 <0>         0.1439
     40 H16        -7.3530    3.4483    1.4564 H         1 <0>         0.1467
     41 H17        -8.3670    4.3632   -2.6084 H         1 <0>         0.1504
     42 H18        -4.9407    1.9686   -1.7582 H         1 <0>         0.1468
@<TRIPOS>BOND
     1    1    2 1
     2    1   26 1
     3    1   27 1
     4    1   28 1
     5    2    3 1
     6    2   29 1
     7    2   30 1
     8    3    4 1
     9    3    6 1
    10    3   31 1
    11    4    5 1
    12    4   32 1
    13    4   33 1
    14    5   34 1
    15    5   35 1
    16    5   36 1
    17    6   15 1
    18    6    7 1
    19    7   12 ar
    20    7    8 ar
    21    8    9 ar
    22    8   37 1
    23    9   10 ar
    24    9   17 1
    25   10   11 ar
    26   10   38 1
    27   11   12 ar
    28   11   39 1
    29   12   13 1
    30   13   14 1
    31   13   15 1
    32   15   16 2
    33   17   22 ar
    34   17   18 ar
    35   18   19 ar
    36   18   40 1
    37   19   20 ar
    38   19   24 1
    39   20   21 ar
    40   20   41 1
    41   21   22 ar
    42   21   23 1
    43   22   42 1
    44   24   25 3
@<TRIPOS>MOLECULE
CHEMBL27766
   38    41     0     0     0
SMALL
USER_CHARGES

@<TRIPOS>ATOM
      1 C1         -0.0169    1.3930    0.0097 C.ar      1 <0>        -0.0556
      2 C2          1.1627    2.1011    0.0022 C.ar      1 <0>        -0.1199
      3 C3          2.3871    1.4317   -0.0130 C.ar      1 <0>         0.1260
      4 C4          2.4000    0.0388   -0.0208 C.ar      1 <0>        -0.1103
      5 C5          1.2284   -0.6766   -0.0137 C.ar      1 <0>        -0.0481
      6 C6          0.0021   -0.0041    0.0020 C.ar      1 <0>        -0.0390
      7 C7         -1.2626   -0.7646    0.0109 C.2       1 <0>         0.0755
      8 C8         -2.5164   -0.2240    0.0211 C.2       1 <0>        -0.1920
      9 C9         -3.4235   -1.2892    0.0264 C.2       1 <0>        -0.1107
     10 C10        -2.6768   -2.4476    0.0191 C.2       1 <0>         0.0387
     11 O1         -1.3715   -2.1047    0.0044 O.3       1 <0>        -0.1482
     12 C11        -3.1956   -3.7823    0.0215 C.1       1 <0>         0.2858
     13 N1         -3.6071   -4.8411    0.0234 N.1       1 <0>        -0.3704
     14 C12         3.8526   -0.3662   -0.0362 C.3       1 <0>        -0.0109
     15 C13         4.1726   -1.1619   -1.2978 C.3       1 <0>        -0.0926
     16 C14         3.3804   -2.4715   -1.2934 C.3       1 <0>        -0.1260
     17 C15         3.7493   -3.2854   -0.0513 C.3       1 <0>        -0.1232
     18 C16         3.4014   -2.4850    1.2054 C.3       1 <0>        -0.1261
     19 C17         4.1947   -1.1759    1.2106 C.3       1 <0>        -0.0926
     20 C18         4.6075    0.9419   -0.0357 C.2       1 <0>         0.2654
     21 N2          3.6902    1.9248   -0.0221 N.pl3     1 <0>        -0.5896
     22 S1          6.1961    1.1234   -0.0483 S.2       1 <0>        -0.3635
     23 H1         -0.9602    1.9186    0.0261 H         1 <0>         0.1454
     24 H2          1.1410    3.1808    0.0079 H         1 <0>         0.1395
     25 H3          1.2535   -1.7563   -0.0206 H         1 <0>         0.1479
     26 H4         -2.7618    0.8277    0.0249 H         1 <0>         0.1666
     27 H5         -4.5011   -1.2175    0.0350 H         1 <0>         0.1691
     28 H6          3.9002   -0.5758   -2.1755 H         1 <0>         0.0662
     29 H7          5.2395   -1.3832   -1.3264 H         1 <0>         0.0899
     30 H8          2.3131   -2.2505   -1.2794 H         1 <0>         0.0683
     31 H9          3.6212   -3.0449   -2.1885 H         1 <0>         0.0732
     32 H10         3.1913   -4.2217   -0.0517 H         1 <0>         0.0673
     33 H11         4.8180   -3.4994   -0.0615 H         1 <0>         0.0696
     34 H12         2.3342   -2.2634    1.2115 H         1 <0>         0.0684
     35 H13         3.6568   -3.0682    2.0902 H         1 <0>         0.0732
     36 H14         5.2618   -1.3980    1.2177 H         1 <0>         0.0899
     37 H15         3.9382   -0.5994    2.0994 H         1 <0>         0.0662
     38 H16         3.9105    2.8695   -0.0187 H         1 <0>         0.4265
@<TRIPOS>BOND
     1    1    6 ar
     2    1    2 ar
     3    1   23 1
     4    2    3 ar
     5    2   24 1
     6    3   21 1
     7    3    4 ar
     8    4    5 ar
     9    4   14 1
    10    5    6 ar
    11    5   25 1
    12    6    7 1
    13    7   11 1
    14    7    8 2
    15    8    9 1
    16    8   26 1
    17    9   10 2
    18    9   27 1
    19   10   11 1
    20   10   12 1
    21   12   13 3
    22   14   19 1
    23   14   15 1
    24   14   20 1
    25   15   16 1
    26   15   28 1
    27   15   29 1
    28   16   17 1
    29   16   30 1
    30   16   31 1
    31   17   18 1
    32   17   32 1
    33   17   33 1
    34   18   19 1
    35   18   34 1
    36   18   35 1
    37   19   36 1
    38   19   37 1
    39   20   21 1
    40   20   22 2
    41   21   38 1
@<TRIPOS>MOLECULE
CHEMBL430004
   62    65     0     0     0
SMALL
USER_CHARGES

@<TRIPOS>ATOM
      1 C1          0.8072   -0.7163    1.0908 C.3       1 <0>        -0.1680
      2 C2          0.0021   -0.0041    0.0020 C.3       1 <0>         0.1329
      3 C3         -1.3778   -0.6048   -0.0765 C.2       1 <0>        -0.0702
      4 C4         -1.7236   -1.3466   -1.1208 C.2       1 <0>        -0.1441
      5 C5         -3.1012   -1.9441   -1.2288 C.3       1 <0>         0.2132
      6 N1         -3.6508   -2.1831    0.1119 N.pl3     1 <0>        -0.7434
      7 C6         -3.4924   -1.1894    1.0796 C.ar      1 <0>         0.2197
      8 C7         -2.3498   -0.3758    1.0114 C.ar      1 <0>        -0.1085
      9 C8         -2.1575    0.6239    1.9557 C.ar      1 <0>        -0.0598
     10 C9         -3.0989    0.8025    2.9670 C.ar      1 <0>        -0.0833
     11 C10        -4.2255   -0.0180    3.0299 C.ar      1 <0>        -0.0465
     12 C11        -4.4230   -1.0012    2.0857 C.ar      1 <0>        -0.1767
     13 C12        -2.9026    1.8679    3.9801 C.ar      1 <0>        -0.0692
     14 C13        -1.6839    1.9856    4.6444 C.ar      1 <0>        -0.0736
     15 C14        -1.5062    2.9786    5.5864 C.ar      1 <0>        -0.1549
     16 C15        -2.5347    3.8585    5.8739 C.ar      1 <0>        -0.0814
     17 C16        -3.7480    3.7502    5.2210 C.ar      1 <0>        -0.2078
     18 C17        -3.9380    2.7619    4.2686 C.ar      1 <0>         0.1357
     19 O1         -5.1282    2.6582    3.6217 O.3       1 <0>        -0.3076
     20 C18        -6.1396    3.6064    3.9682 C.3       1 <0>         0.0251
     21 C19        -3.0218   -3.2696   -1.9889 C.3       1 <0>        -0.1516
     22 C20        -4.0150   -0.9798   -1.9878 C.3       1 <0>        -0.1574
     23 O2          0.6613   -0.1591   -1.2563 O.3       1 <0>        -0.3781
     24 C21         1.6039    0.8741   -1.5498 C.3       1 <0>         0.0684
     25 C22         2.2452    0.6072   -2.9130 C.3       1 <0>        -0.0789
     26 C23         3.2392    1.6968   -3.2225 C.ar      1 <0>        -0.0790
     27 C24         2.8302    2.8359   -3.8904 C.ar      1 <0>        -0.1014
     28 C25         3.7414    3.8356   -4.1745 C.ar      1 <0>        -0.1082
     29 C26         5.0632    3.6959   -3.7904 C.ar      1 <0>        -0.0365
     30 C27         5.4720    2.5556   -3.1220 C.ar      1 <0>        -0.1083
     31 C28         4.5586    1.5592   -2.8335 C.ar      1 <0>        -0.1015
     32 Cl1         6.2084    4.9508   -4.1474 Cl        1 <0>        -0.0690
     33 H1          1.8181   -0.3096    1.1199 H         1 <0>         0.0594
     34 H2          0.3262   -0.5637    2.0569 H         1 <0>         0.0693
     35 H3          0.8510   -1.7831    0.8711 H         1 <0>         0.0650
     36 H4         -0.0764    1.0561    0.2430 H         1 <0>         0.0689
     37 H5         -1.0047   -1.5246   -1.9069 H         1 <0>         0.1330
     38 H6         -4.1124   -3.0105    0.3198 H         1 <0>         0.4015
     39 H7         -1.2846    1.2579    1.9067 H         1 <0>         0.1209
     40 H8         -4.9504    0.1245    3.8176 H         1 <0>         0.1221
     41 H9         -5.2975   -1.6327    2.1390 H         1 <0>         0.1232
     42 H10        -0.8790    1.3004    4.4228 H         1 <0>         0.1289
     43 H11        -0.5611    3.0690    6.1012 H         1 <0>         0.1250
     44 H12        -2.3889    4.6332    6.6121 H         1 <0>         0.1245
     45 H13        -4.5472    4.4396    5.4498 H         1 <0>         0.1285
     46 H14        -6.3740    3.5164    5.0289 H         1 <0>         0.0554
     47 H15        -5.7798    4.6140    3.7598 H         1 <0>         0.0550
     48 H16        -7.0366    3.4121    3.3802 H         1 <0>         0.1004
     49 H17        -2.3677   -3.9572   -1.4527 H         1 <0>         0.0630
     50 H18        -4.0186   -3.7035   -2.0679 H         1 <0>         0.0626
     51 H19        -2.6224   -3.0925   -2.9875 H         1 <0>         0.0742
     52 H20        -3.6131   -0.8085   -2.9864 H         1 <0>         0.0652
     53 H21        -5.0129   -1.4112   -2.0668 H         1 <0>         0.0593
     54 H22        -4.0699   -0.0328   -1.4509 H         1 <0>         0.0570
     55 H23         1.0931    1.8368   -1.5707 H         1 <0>         0.0517
     56 H24         2.3769    0.8896   -0.7814 H         1 <0>         0.0520
     57 H25         2.7560   -0.3554   -2.8921 H         1 <0>         0.0843
     58 H26         1.4722    0.5917   -3.6814 H         1 <0>         0.0842
     59 H27         1.7984    2.9447   -4.1905 H         1 <0>         0.1331
     60 H28         3.4218    4.7253   -4.6966 H         1 <0>         0.1346
     61 H29         6.5037    2.4459   -2.8222 H         1 <0>         0.1346
     62 H30         4.8766    0.6711   -2.3075 H         1 <0>         0.1331
@<TRIPOS>BOND
     1    1    2 1
     2    1   33 1
     3    1   34 1
     4    1   35 1
     5    2    3 1
     6    2   23 1
     7    2   36 1
     8    3    8 1
     9    3    4 2
    10    4    5 1
    11    4   37 1
    12    5    6 1
    13    5   21 1
    14    5   22 1
    15    6    7 1
    16    6   38 1
    17    7   12 ar
    18    7    8 ar
    19    8    9 ar
    20    9   10 ar
    21    9   39 1
    22   10   11 ar
    23   10   13 1
    24   11   12 ar
    25   11   40 1
    26   12   41 1
    27   13   18 ar
    28   13   14 ar
    29   14   15 ar
    30   14   42 1
    31   15   16 ar
    32   15   43 1
    33   16   17 ar
    34   16   44 1
    35   17   18 ar
    36   17   45 1
    37   18   19 1
    38   19   20 1
    39   20   46 1
    40   20   47 1
    41   20   48 1
    42   21   49 1
    43   21   50 1
    44   21   51 1
    45   22   52 1
    46   22   53 1
    47   22   54 1
    48   23   24 1
    49   24   25 1
    50   24   55 1
    51   24   56 1
    52   25   26 1
    53   25   57 1
    54   25   58 1
    55   26   31 ar
    56   26   27 ar
    57   27   28 ar
    58   27   59 1
    59   28   29 ar
    60   28   60 1
    61   29   30 ar
    62   29   32 1
    63   30   31 ar
    64   30   61 1
    65   31   62 1
@<TRIPOS>MOLECULE
CHEMBL430004__1
   62    65     0     0     0
SMALL
USER_CHARGES

@<TRIPOS>ATOM
      1 C1         -0.0187    1.5258    0.0104 C.3       1 <0>        -0.1729
      2 C2          0.0021   -0.0041    0.0020 C.3       1 <0>         0.1315
      3 C3          0.7309   -0.5033    1.2229 C.2       1 <0>        -0.0481
      4 C4          1.8756   -1.1618    1.0933 C.2       1 <0>        -0.1658
      5 C5          2.6136   -1.6836    2.2972 C.3       1 <0>         0.2183
      6 N1          2.3291   -0.8395    3.4648 N.pl3     1 <0>        -0.7449
      7 C6          1.0106   -0.4376    3.6861 C.ar      1 <0>         0.2170
      8 C7          0.1779   -0.2568    2.5698 C.ar      1 <0>        -0.1128
      9 C8         -1.1399    0.1418    2.7496 C.ar      1 <0>        -0.0416
     10 C9         -1.6189    0.3663    4.0385 C.ar      1 <0>        -0.0919
     11 C10        -0.7796    0.1923    5.1392 C.ar      1 <0>        -0.0449
     12 C11         0.5240   -0.2156    4.9619 C.ar      1 <0>        -0.1829
     13 C12        -3.0252    0.7920    4.2409 C.ar      1 <0>        -0.0646
     14 C13        -3.5462    1.8568    3.5092 C.ar      1 <0>        -0.0719
     15 C14        -4.8554    2.2491    3.7013 C.ar      1 <0>        -0.1550
     16 C15        -5.6534    1.5885    4.6186 C.ar      1 <0>        -0.0828
     17 C16        -5.1464    0.5312    5.3501 C.ar      1 <0>        -0.2082
     18 C17        -3.8356    0.1228    5.1629 C.ar      1 <0>         0.1348
     19 O1         -3.3379   -0.9204    5.8769 O.3       1 <0>        -0.3075
     20 C18        -4.2241   -1.5560    6.8004 C.3       1 <0>         0.0254
     21 C19         2.1650   -3.1176    2.5858 C.3       1 <0>        -0.1579
     22 C20         4.1175   -1.6711    2.0158 C.3       1 <0>        -0.1528
     23 O2         -1.3386   -0.4987    0.0122 O.3       1 <0>        -0.3714
     24 C21        -1.8963   -0.6929   -1.2891 C.3       1 <0>         0.0664
     25 C22        -3.3260   -1.2214   -1.1575 C.3       1 <0>        -0.0795
     26 C23        -3.9142   -1.4262   -2.5297 C.ar      1 <0>        -0.0777
     27 C24        -4.5934   -0.3949   -3.1513 C.ar      1 <0>        -0.1014
     28 C25        -5.1331   -0.5821   -4.4098 C.ar      1 <0>        -0.1083
     29 C26        -4.9935   -1.8019   -5.0477 C.ar      1 <0>        -0.0369
     30 C27        -4.3137   -2.8336   -4.4251 C.ar      1 <0>        -0.1083
     31 C28        -3.7695   -2.6434   -3.1689 C.ar      1 <0>        -0.1017
     32 Cl1        -5.6715   -2.0380   -6.6282 Cl        1 <0>        -0.0694
     33 H1          1.0039    1.9031    0.0027 H         1 <0>         0.0662
     34 H2         -0.5459    1.8868   -0.8726 H         1 <0>         0.0601
     35 H3         -0.5289    1.8773    0.9072 H         1 <0>         0.0696
     36 H4          0.5123   -0.3556   -0.8948 H         1 <0>         0.0675
     37 H5          2.2846   -1.3265    0.1074 H         1 <0>         0.1209
     38 H6          3.0394   -0.5683    4.0672 H         1 <0>         0.4012
     39 H7         -1.7886    0.2772    1.8968 H         1 <0>         0.1408
     40 H8         -1.1566    0.3700    6.1356 H         1 <0>         0.1202
     41 H9          1.1687   -0.3495    5.8179 H         1 <0>         0.1211
     42 H10        -2.9261    2.3749    2.7927 H         1 <0>         0.1282
     43 H11        -5.2584    3.0749    3.1338 H         1 <0>         0.1239
     44 H12        -6.6770    1.9007    4.7639 H         1 <0>         0.1234
     45 H13        -5.7739    0.0196    6.0649 H         1 <0>         0.1275
     46 H14        -4.5609   -0.8292    7.5396 H         1 <0>         0.0548
     47 H15        -5.0851   -1.9533    6.2629 H         1 <0>         0.0547
     48 H16        -3.7022   -2.3702    7.3030 H         1 <0>         0.0996
     49 H17         2.3838   -3.7473    1.7234 H         1 <0>         0.0641
     50 H18         2.6986   -3.4969    3.4573 H         1 <0>         0.0598
     51 H19         1.0929   -3.1303    2.7823 H         1 <0>         0.0588
     52 H20         4.4393   -0.6512    1.8054 H         1 <0>         0.0629
     53 H21         4.6532   -2.0488    2.8867 H         1 <0>         0.0637
     54 H22         4.3313   -2.3045    1.1549 H         1 <0>         0.0733
     55 H23        -1.9077    0.2563   -1.8248 H         1 <0>         0.0514
     56 H24        -1.2917   -1.4136   -1.8397 H         1 <0>         0.0508
     57 H25        -3.3146   -2.1706   -0.6217 H         1 <0>         0.0840
     58 H26        -3.9306   -0.5007   -0.6069 H         1 <0>         0.0845
     59 H27        -4.7026    0.5571   -2.6531 H         1 <0>         0.1331
     60 H28        -5.6640    0.2235   -4.8952 H         1 <0>         0.1344
     61 H29        -4.2046   -3.7861   -4.9224 H         1 <0>         0.1343
     62 H30        -3.2347   -3.4472   -2.6848 H         1 <0>         0.1328
@<TRIPOS>BOND
     1    1    2 1
     2    1   33 1
     3    1   34 1
     4    1   35 1
     5    2    3 1
     6    2   23 1
     7    2   36 1
     8    3    8 1
     9    3    4 2
    10    4    5 1
    11    4   37 1
    12    5    6 1
    13    5   21 1
    14    5   22 1
    15    6    7 1
    16    6   38 1
    17    7   12 ar
    18    7    8 ar
    19    8    9 ar
    20    9   10 ar
    21    9   39 1
    22   10   11 ar
    23   10   13 1
    24   11   12 ar
    25   11   40 1
    26   12   41 1
    27   13   18 ar
    28   13   14 ar
    29   14   15 ar
    30   14   42 1
    31   15   16 ar
    32   15   43 1
    33   16   17 ar
    34   16   44 1
    35   17   18 ar
    36   17   45 1
    37   18   19 1
    38   19   20 1
    39   20   46 1
    40   20   47 1
    41   20   48 1
    42   21   49 1
    43   21   50 1
    44   21   51 1
    45   22   52 1
    46   22   53 1
    47   22   54 1
    48   23   24 1
    49   24   25 1
    50   24   55 1
    51   24   56 1
    52   25   26 1
    53   25   57 1
    54   25   58 1
    55   26   31 ar
    56   26   27 ar
    57   27   28 ar
    58   27   59 1
    59   28   29 ar
    60   28   60 1
    61   29   30 ar
    62   29   32 1
    63   30   31 ar
    64   30   61 1
    65   31   62 1
@<TRIPOS>MOLECULE
CHEMBL35429
   51    55     0     0     0
SMALL
USER_CHARGES

@<TRIPOS>ATOM
      1 C1         -0.1288    1.6382    0.9669 C.3       1 <0>        -0.1571
      2 C2         -0.1730    0.1163    0.8160 C.3       1 <0>        -0.1013
      3 H1         -1.1265   -0.2581    1.1886 H         1 <0>         0.1085
      4 C3         -0.0238   -0.2491   -0.6399 C.ar      1 <0>        -0.1225
      5 C4          1.1527   -0.7839   -1.1447 C.ar      1 <0>         0.2222
      6 C5          1.2519   -1.0974   -2.5002 C.ar      1 <0>        -0.1738
      7 C6          0.1861   -0.8788   -3.3472 C.ar      1 <0>        -0.0552
      8 C7         -0.9896   -0.3410   -2.8428 C.ar      1 <0>        -0.0771
      9 C8         -1.0988   -0.0450   -1.4820 C.ar      1 <0>        -0.0622
     10 C9         -2.4089    0.4676   -0.9434 C.3       1 <0>         0.1764
     11 H2         -2.2186    1.1002   -0.0764 H         1 <0>         0.1370
     12 O1         -3.0954    1.2256   -1.9376 O.3       1 <0>        -0.2982
     13 C10        -3.2015    0.7123   -3.1891 C.ar      1 <0>         0.1239
     14 C11        -2.1627   -0.0725   -3.7069 C.ar      1 <0>        -0.1026
     15 C12        -2.2469   -0.5796   -4.9960 C.ar      1 <0>        -0.0806
     16 C13        -3.3678   -0.3181   -5.7617 C.ar      1 <0>        -0.1412
     17 C14        -4.4006    0.4438   -5.2454 C.ar      1 <0>        -0.0878
     18 C15        -4.3211    0.9588   -3.9643 C.ar      1 <0>        -0.1418
     19 C16        -3.2669   -0.6998   -0.5285 C.ar      1 <0>        -0.1104
     20 C17        -3.9686   -1.4146   -1.4812 C.ar      1 <0>        -0.0937
     21 C18        -4.7557   -2.4854   -1.1013 C.ar      1 <0>        -0.1051
     22 C19        -4.8412   -2.8417    0.2328 C.ar      1 <0>        -0.0281
     23 C20        -4.1387   -2.1259    1.1858 C.ar      1 <0>        -0.1065
     24 C21        -3.3475   -1.0589    0.8040 C.ar      1 <0>        -0.0955
     25 Cl1        -5.8300   -4.1861    0.7109 Cl        1 <0>        -0.0655
     26 N1          2.2595   -1.0397   -0.3297 N.pl3     1 <0>        -0.7324
     27 C22         2.3445   -0.4293    1.0035 C.3       1 <0>         0.1353
     28 C23         0.9552   -0.5014    1.6093 C.2       1 <0>         0.3682
     29 O2          0.7600   -1.0286    2.6781 O.2       1 <0>        -0.4288
     30 C24         3.3348   -1.2072    1.8725 C.3       1 <0>        -0.1493
     31 C25         2.7870    1.0303    0.8829 C.3       1 <0>        -0.1637
     32 H3          0.7564    2.0276    0.4640 H         1 <0>         0.0799
     33 H4         -1.0221    2.0738    0.5193 H         1 <0>         0.0754
     34 H5         -0.0892    1.8975    2.0248 H         1 <0>         0.0701
     35 H6          2.1696   -1.5137   -2.8889 H         1 <0>         0.1302
     36 H7          0.2656   -1.1247   -4.3958 H         1 <0>         0.1319
     37 H8         -1.4411   -1.1751   -5.3989 H         1 <0>         0.1290
     38 H9         -3.4372   -0.7094   -6.7659 H         1 <0>         0.1283
     39 H10        -5.2760    0.6379   -5.8475 H         1 <0>         0.1313
     40 H11        -5.1322    1.5522   -3.5689 H         1 <0>         0.1342
     41 H12        -3.9021   -1.1362   -2.5226 H         1 <0>         0.1382
     42 H13        -5.3041   -3.0435   -1.8456 H         1 <0>         0.1360
     43 H14        -4.2053   -2.4034    2.2275 H         1 <0>         0.1380
     44 H15        -2.7953   -0.5030    1.5473 H         1 <0>         0.1342
     45 H16         2.9703   -1.6200   -0.6442 H         1 <0>         0.4090
     46 H17         4.3198   -1.1889    1.4061 H         1 <0>         0.0722
     47 H18         3.3914   -0.7475    2.8592 H         1 <0>         0.0806
     48 H19         2.9987   -2.2393    1.9713 H         1 <0>         0.0685
     49 H20         2.2138    1.5199    0.0956 H         1 <0>         0.0764
     50 H21         2.6142    1.5418    1.8298 H         1 <0>         0.0712
     51 H22         3.8483    1.0691    0.6374 H         1 <0>         0.0741
@<TRIPOS>BOND
     1    1    2 1
     2    1   32 1
     3    1   33 1
     4    1   34 1
     5    2    3 1
     6    2   28 1
     7    2    4 1
     8    4    9 ar
     9    4    5 ar
    10    5    6 ar
    11    5   26 1
    12    6    7 ar
    13    6   35 1
    14    7    8 ar
    15    7   36 1
    16    8   14 1
    17    8    9 ar
    18    9   10 1
    19   10   11 1
    20   10   12 1
    21   10   19 1
    22   12   13 1
    23   13   18 ar
    24   13   14 ar
    25   14   15 ar
    26   15   16 ar
    27   15   37 1
    28   16   17 ar
    29   16   38 1
    30   17   18 ar
    31   17   39 1
    32   18   40 1
    33   19   24 ar
    34   19   20 ar
    35   20   21 ar
    36   20   41 1
    37   21   22 ar
    38   21   42 1
    39   22   23 ar
    40   22   25 1
    41   23   24 ar
    42   23   43 1
    43   24   44 1
    44   26   27 1
    45   26   45 1
    46   27   28 1
    47   27   30 1
    48   27   31 1
    49   28   29 2
    50   30   46 1
    51   30   47 1
    52   30   48 1
    53   31   49 1
    54   31   50 1
    55   31   51 1
@<TRIPOS>MOLECULE
CHEMBL486709
   37    39     0     0     0
SMALL
USER_CHARGES

@<TRIPOS>ATOM
      1 C1         -0.0187    1.5258    0.0104 C.3       1 <0>        -0.1436
      2 C2          0.0021   -0.0041    0.0020 C.3       1 <0>         0.1582
      3 C3          0.4680   -0.4616   -1.3454 C.ar      1 <0>        -0.1374
      4 C4          0.2824    0.4375   -2.3906 C.ar      1 <0>        -0.0691
      5 C5          0.6769    0.1275   -3.6846 C.ar      1 <0>        -0.0721
      6 C6          1.2699   -1.1089   -3.9376 C.ar      1 <0>        -0.0676
      7 C7          1.4510   -1.9953   -2.9073 C.ar      1 <0>        -0.1588
      8 C8          1.0515   -1.6878   -1.5945 C.ar      1 <0>         0.1883
      9 N1          1.2875   -2.6759   -0.6648 N.am      1 <0>        -0.6464
     10 C9          1.2200   -2.7530    0.6375 C.2       1 <0>         0.4964
     11 O1          1.7122   -3.7342    1.1533 O.2       1 <0>        -0.5298
     12 C10         0.5985   -1.7540    1.5518 C.3       1 <0>         0.0469
     13 O2          0.7786   -0.4390    1.0782 O.3       1 <0>        -0.3524
     14 C11         0.4697    1.0999   -4.7857 C.ar      1 <0>        -0.0087
     15 C12        -0.1189    2.3363   -4.5252 C.ar      1 <0>        -0.1249
     16 C13        -0.3099    3.2379   -5.5524 C.ar      1 <0>        -0.0838
     17 C14         0.0814    2.9176   -6.8397 C.ar      1 <0>        -0.1547
     18 C15         0.6666    1.6905   -7.1056 C.ar      1 <0>         0.1053
     19 C16         0.8680    0.7826   -6.0824 C.ar      1 <0>        -0.1498
     20 F1          1.0464    1.3828   -8.3651 F         1 <0>        -0.1373
     21 C17        -1.4292   -0.5039    0.2080 C.3       1 <0>        -0.1888
     22 H1          0.9718    1.9040   -0.2426 H         1 <0>         0.0709
     23 H2         -0.7422    1.8834   -0.7222 H         1 <0>         0.0788
     24 H3         -0.3004    1.8799    1.0021 H         1 <0>         0.0739
     25 H4         -0.1768    1.3945   -2.1913 H         1 <0>         0.1418
     26 H5          1.5841   -1.3667   -4.9382 H         1 <0>         0.1354
     27 H6          1.9111   -2.9514   -3.1086 H         1 <0>         0.1330
     28 H7          1.5694   -3.5098   -1.0723 H         1 <0>         0.4006
     29 H8         -0.4687   -1.9604    1.6326 H         1 <0>         0.0967
     30 H9          1.0531   -1.8428    2.5385 H         1 <0>         0.1418
     31 H10        -0.4255    2.5882   -3.5208 H         1 <0>         0.1319
     32 H11        -0.7663    4.1957   -5.3506 H         1 <0>         0.1369
     33 H12        -0.0700    3.6264   -7.6403 H         1 <0>         0.1372
     34 H13         1.3288   -0.1720   -6.2887 H         1 <0>         0.1383
     35 H14        -2.0628   -0.1338   -0.5981 H         1 <0>         0.0773
     36 H15        -1.4374   -1.5939    0.2053 H         1 <0>         0.0596
     37 H16        -1.8072   -0.1401    1.1634 H         1 <0>         0.0761
@<TRIPOS>BOND
     1    1    2 1
     2    1   22 1
     3    1   23 1
     4    1   24 1
     5    2   13 1
     6    2    3 1
     7    2   21 1
     8    3    8 ar
     9    3    4 ar
    10    4    5 ar
    11    4   25 1
    12    5    6 ar
    13    5   14 1
    14    6    7 ar
    15    6   26 1
    16    7    8 ar
    17    7   27 1
    18    8    9 1
    19    9   10 am
    20    9   28 1
    21   10   11 2
    22   10   12 1
    23   12   13 1
    24   12   29 1
    25   12   30 1
    26   14   19 ar
    27   14   15 ar
    28   15   16 ar
    29   15   31 1
    30   16   17 ar
    31   16   32 1
    32   17   18 ar
    33   17   33 1
    34   18   19 ar
    35   18   20 1
    36   19   34 1
    37   21   35 1
    38   21   36 1
    39   21   37 1
@<TRIPOS>MOLECULE
CHEMBL167492
   36    38     0     0     0
SMALL
USER_CHARGES

@<TRIPOS>ATOM
      1 C1         -0.0187    1.5259    0.0104 C.3       1 <0>        -0.1913
      2 C2          0.0021   -0.0041    0.0020 C.3       1 <0>         0.3270
      3 N1         -1.3741   -0.5234   -0.0303 N.pl3     1 <0>        -0.7694
      4 C3         -2.1165   -0.4092    1.1522 C.ar      1 <0>         0.2092
      5 C4         -3.4978   -0.3013    1.1099 C.ar      1 <0>        -0.1692
      6 C5         -4.2129   -0.1815    2.2838 C.ar      1 <0>        -0.0645
      7 C6         -3.5394   -0.1718    3.5032 C.ar      1 <0>        -0.0619
      8 C7         -2.1510   -0.2860    3.5382 C.ar      1 <0>        -0.0624
      9 C8         -1.4339   -0.4049    2.3627 C.ar      1 <0>        -0.1605
     10 C9          0.0632   -0.5391    2.4064 C.3       1 <0>         0.1774
     11 O1          0.6786   -0.5211    1.1337 O.3       1 <0>        -0.3843
     12 C10         0.6447    0.5903    3.2698 C.3       1 <0>        -0.1643
     13 C11         0.4047   -1.8758    3.0909 C.3       1 <0>        -0.1427
     14 C12        -4.3022   -0.0390    4.7702 C.2       1 <0>        -0.1302
     15 C13        -5.7051    0.0803    4.9015 C.2       1 <0>        -0.1105
     16 C14        -5.9656    0.1770    6.2363 C.2       1 <0>         0.0411
     17 O2         -4.7944    0.1216    6.9022 O.3       1 <0>        -0.1503
     18 C15        -3.7860   -0.0144    6.0300 C.2       1 <0>         0.0113
     19 C16        -7.2617    0.3140    6.8297 C.1       1 <0>         0.2864
     20 N2         -8.2898    0.4227    7.3005 N.1       1 <0>        -0.3736
     21 H1          1.0039    1.9032    0.0027 H         1 <0>         0.0743
     22 H2         -0.5459    1.8870   -0.8726 H         1 <0>         0.0708
     23 H3         -0.5289    1.8774    0.9072 H         1 <0>         0.0607
     24 H4          0.5170   -0.3367   -0.9124 H         1 <0>         0.1149
     25 H5         -1.7471   -0.9227   -0.8280 H         1 <0>         0.4093
     26 H6         -4.0149   -0.3104    0.1618 H         1 <0>         0.1273
     27 H7         -5.2885   -0.0940    2.2565 H         1 <0>         0.1270
     28 H8         -1.6464   -0.2845    4.4931 H         1 <0>         0.1245
     29 H9          0.2409    0.5202    4.2798 H         1 <0>         0.0677
     30 H10         1.7302    0.4983    3.3053 H         1 <0>         0.0680
     31 H11         0.3756    1.5538    2.8370 H         1 <0>         0.0584
     32 H12        -0.0292   -2.6973    2.5208 H         1 <0>         0.0600
     33 H13         1.4872   -1.9956    3.1343 H         1 <0>         0.0670
     34 H14        -0.0022   -1.8806    4.1021 H         1 <0>         0.0701
     35 H15        -6.4293    0.0927    4.1003 H         1 <0>         0.1650
     36 H16        -2.7389   -0.0893    6.2838 H         1 <0>         0.2173
@<TRIPOS>BOND
     1    1    2 1
     2    1   21 1
     3    1   22 1
     4    1   23 1
     5    2   11 1
     6    2    3 1
     7    2   24 1
     8    3    4 1
     9    3   25 1
    10    4    9 ar
    11    4    5 ar
    12    5    6 ar
    13    5   26 1
    14    6    7 ar
    15    6   27 1
    16    7    8 ar
    17    7   14 1
    18    8    9 ar
    19    8   28 1
    20    9   10 1
    21   10   11 1
    22   10   12 1
    23   10   13 1
    24   12   29 1
    25   12   30 1
    26   12   31 1
    27   13   32 1
    28   13   33 1
    29   13   34 1
    30   14   18 2
    31   14   15 1
    32   15   16 2
    33   15   35 1
    34   16   17 1
    35   16   19 1
    36   17   18 1
    37   18   36 1
    38   19   20 3
@<TRIPOS>MOLECULE
CHEMBL167492__1
   36    38     0     0     0
SMALL
USER_CHARGES

@<TRIPOS>ATOM
      1 C1         -0.0187    1.5258    0.0104 C.3       1 <0>        -0.1563
      2 C2          0.0021   -0.0041    0.0020 C.3       1 <0>         0.3092
      3 N1          0.7225   -0.4857   -1.1871 N.pl3     1 <0>        -0.7608
      4 C3          1.1714   -1.8129   -1.1896 C.ar      1 <0>         0.2224
      5 C4          1.6076   -2.3973   -2.3714 C.ar      1 <0>        -0.1818
      6 C5          2.0528   -3.7028   -2.3713 C.ar      1 <0>        -0.0577
      7 C6          2.0637   -4.4320   -1.1838 C.ar      1 <0>        -0.0716
      8 C7          1.6239   -3.8433   -0.0007 C.ar      1 <0>        -0.0562
      9 C8          1.1770   -2.5369   -0.0039 C.ar      1 <0>        -0.1747
     10 C9          0.6947   -1.9095    1.2780 C.3       1 <0>         0.1615
     11 O1          0.6940   -0.4861    1.1608 O.3       1 <0>        -0.3727
     12 C10        -0.7255   -2.3942    1.5765 C.3       1 <0>        -0.1723
     13 C11         1.6196   -2.3233    2.4243 C.3       1 <0>        -0.1363
     14 C12         2.5438   -5.8371   -1.1799 C.2       1 <0>        -0.1269
     15 C13         3.0234   -6.5675   -2.2918 C.2       1 <0>        -0.1112
     16 C14         3.3528   -7.8079   -1.8315 C.2       1 <0>         0.0405
     17 O2          3.0948   -7.8519   -0.5087 O.3       1 <0>        -0.1508
     18 C15         2.6127   -6.6687   -0.1039 C.2       1 <0>         0.0088
     19 C16         3.8825   -8.8807   -2.6184 C.1       1 <0>         0.2868
     20 N2          4.3027   -9.7318   -3.2426 N.1       1 <0>        -0.3745
     21 H1          1.0039    1.9031    0.0027 H         1 <0>         0.0717
     22 H2         -0.5459    1.8868   -0.8726 H         1 <0>         0.0777
     23 H3         -0.5289    1.8773    0.9072 H         1 <0>         0.0816
     24 H4         -1.0185   -0.3867   -0.0039 H         1 <0>         0.0694
     25 H5          0.8814    0.0974   -1.9458 H         1 <0>         0.4070
     26 H6          1.5979   -1.8299   -3.2904 H         1 <0>         0.1260
     27 H7          2.3919   -4.1590   -3.2896 H         1 <0>         0.1262
     28 H8          1.6325   -4.4087    0.9194 H         1 <0>         0.1253
     29 H9         -0.7249   -3.4794    1.6796 H         1 <0>         0.0716
     30 H10        -1.0765   -1.9414    2.5038 H         1 <0>         0.0694
     31 H11        -1.3867   -2.1073    0.7589 H         1 <0>         0.0576
     32 H12         2.6342   -1.9857    2.2125 H         1 <0>         0.0664
     33 H13         1.2724   -1.8704    3.3529 H         1 <0>         0.0684
     34 H14         1.6113   -3.4087    2.5241 H         1 <0>         0.0745
     35 H15         3.1112   -6.2121   -3.3079 H         1 <0>         0.1647
     36 H16         2.3246   -6.4177    0.9062 H         1 <0>         0.2169
@<TRIPOS>BOND
     1    1    2 1
     2    1   21 1
     3    1   22 1
     4    1   23 1
     5    2   11 1
     6    2    3 1
     7    2   24 1
     8    3    4 1
     9    3   25 1
    10    4    9 ar
    11    4    5 ar
    12    5    6 ar
    13    5   26 1
    14    6    7 ar
    15    6   27 1
    16    7    8 ar
    17    7   14 1
    18    8    9 ar
    19    8   28 1
    20    9   10 1
    21   10   11 1
    22   10   12 1
    23   10   13 1
    24   12   29 1
    25   12   30 1
    26   12   31 1
    27   13   32 1
    28   13   33 1
    29   13   34 1
    30   14   18 2
    31   14   15 1
    32   15   16 2
    33   15   35 1
    34   16   17 1
    35   16   19 1
    36   17   18 1
    37   18   36 1
    38   19   20 3
@<TRIPOS>MOLECULE
CHEMBL241642
   39    42     0     0     0
SMALL
USER_CHARGES

@<TRIPOS>ATOM
      1 C1         -0.0168    1.3907    0.0097 C.ar      1 <0>        -0.0890
      2 C2          1.1658    2.0998    0.0022 C.ar      1 <0>        -0.0867
      3 C3          2.3788    1.4262   -0.0134 C.ar      1 <0>         0.0790
      4 C4          2.4036    0.0286   -0.0211 C.ar      1 <0>         0.0819
      5 C5          1.2173   -0.6844   -0.0135 C.ar      1 <0>        -0.0839
      6 C6          0.0021   -0.0041    0.0020 C.ar      1 <0>        -0.0242
      7 C7         -1.2727   -0.7630    0.0106 C.ar      1 <0>        -0.0434
      8 C8         -1.2562   -2.1567    0.0087 C.ar      1 <0>        -0.0754
      9 C9         -2.4437   -2.8591    0.0172 C.ar      1 <0>        -0.1356
     10 C10        -3.6520   -2.1815    0.0270 C.ar      1 <0>         0.1157
     11 C11        -3.6737   -0.7953    0.0284 C.ar      1 <0>        -0.0710
     12 C12        -2.4896   -0.0846    0.0262 C.ar      1 <0>        -0.0712
     13 Cl1        -5.1911    0.0481    0.0395 Cl        1 <0>        -0.0401
     14 F1         -4.8123   -2.8734    0.0348 F         1 <0>        -0.1220
     15 N1          3.7440   -0.3498   -0.0364 N.pl3     1 <0>        -0.4639
     16 C13         4.4990    0.7648   -0.0379 C.2       1 <0>         0.5006
     17 S1          6.2107    0.7958   -0.0547 S.2       1 <0>        -0.5784
     18 N2          3.7044    1.8514   -0.0243 N.pl3     1 <0>        -0.5764
     19 H1          4.0045    2.7738   -0.0226 H         1 <0>         0.4482
     20 C14         4.2465   -1.7259   -0.0483 C.3       1 <0>         0.1458
     21 C15         5.1780   -1.9587    1.1591 C.3       1 <0>        -0.1408
     22 C16         6.2910   -2.8839    0.6073 C.3       1 <0>        -0.1129
     23 C17         6.5105   -2.3376   -0.8253 C.3       1 <0>        -0.1209
     24 C18         5.0937   -1.9668   -1.3100 C.3       1 <0>        -0.1273
     25 H2         -0.9601    1.9165    0.0260 H         1 <0>         0.1450
     26 H3          1.1479    3.1797    0.0081 H         1 <0>         0.1437
     27 H4          1.2338   -1.7643   -0.0197 H         1 <0>         0.1400
     28 H5         -0.3150   -2.6862    0.0004 H         1 <0>         0.1427
     29 H6         -2.4313   -3.9391    0.0158 H         1 <0>         0.1510
     30 H7         -2.5068    0.9953    0.0322 H         1 <0>         0.1492
     31 H8          3.4130   -2.4277   -0.0186 H         1 <0>         0.1065
     32 H9          5.6017   -1.0147    1.5017 H         1 <0>         0.0996
     33 H10         4.6384   -2.4515    1.9678 H         1 <0>         0.0687
     34 H11         7.2007   -2.7898    1.2002 H         1 <0>         0.0741
     35 H12         5.9530   -3.9198    0.5782 H         1 <0>         0.0646
     36 H13         7.1494   -1.4548   -0.8032 H         1 <0>         0.0947
     37 H14         6.9432   -3.1070   -1.4648 H         1 <0>         0.0626
     38 H15         4.6718   -2.7861   -1.8922 H         1 <0>         0.0734
     39 H16         5.1310   -1.0599   -1.9135 H         1 <0>         0.0758
@<TRIPOS>BOND
     1    1    6 ar
     2    1    2 ar
     3    1   25 1
     4    2    3 ar
     5    2   26 1
     6    3   18 1
     7    3    4 ar
     8    4    5 ar
     9    4   15 1
    10    5    6 ar
    11    5   27 1
    12    6    7 1
    13    7   12 ar
    14    7    8 ar
    15    8    9 ar
    16    8   28 1
    17    9   10 ar
    18    9   29 1
    19   10   11 ar
    20   10   14 1
    21   11   12 ar
    22   11   13 1
    23   12   30 1
    24   15   16 1
    25   15   20 1
    26   16   17 2
    27   16   18 1
    28   18   19 1
    29   20   24 1
    30   20   21 1
    31   20   31 1
    32   21   22 1
    33   21   32 1
    34   21   33 1
    35   22   23 1
    36   22   34 1
    37   22   35 1
    38   23   24 1
    39   23   36 1
    40   23   37 1
    41   24   38 1
    42   24   39 1
@<TRIPOS>MOLECULE
CHEMBL239734
   38    41     0     0     0
SMALL
USER_CHARGES

@<TRIPOS>ATOM
      1 C1         -1.4098    1.0722    0.1530 C.3       1 <0>         0.0532
      2 N1         -0.6620   -0.1850    0.0726 N.pl3     1 <0>        -0.4131
      3 C2         -0.5367   -0.9758   -1.0474 C.2       1 <0>         0.0641
      4 C3          0.2419   -2.0665   -0.7147 C.2       1 <0>        -0.1077
      5 C4          0.5942   -1.9353    0.6279 C.2       1 <0>        -0.1709
      6 C5          0.0330   -0.7667    1.0952 C.2       1 <0>         0.0865
      7 C6          0.1585   -0.2354    2.4678 C.ar      1 <0>         0.0003
      8 C7         -0.0540    1.1244    2.7136 C.ar      1 <0>        -0.1086
      9 C8          0.0624    1.6226    3.9926 C.ar      1 <0>        -0.0831
     10 C9          0.3914    0.7745    5.0420 C.ar      1 <0>         0.0765
     11 C10         0.6052   -0.5864    4.8031 C.ar      1 <0>         0.0906
     12 C11         0.4836   -1.0915    3.5206 C.ar      1 <0>        -0.0768
     13 N2          0.9137   -1.1666    6.0313 N.pl3     1 <0>        -0.4578
     14 C12         0.8887   -0.2042    6.9724 C.2       1 <0>         0.5040
     15 S1          1.2050   -0.4455    8.6375 S.2       1 <0>        -0.5908
     16 N3          0.5768    0.9765    6.4060 N.pl3     1 <0>        -0.5753
     17 H1          0.4953    1.8244    6.8701 H         1 <0>         0.4486
     18 C13         1.2137   -2.5822    6.2600 C.3       1 <0>         0.1149
     19 C14         2.1498   -3.1921    5.2034 C.3       1 <0>        -0.1526
     20 C15         1.2695   -4.4516    5.2644 C.3       1 <0>        -0.1341
     21 C16         0.1274   -3.5349    5.7336 C.3       1 <0>        -0.1496
     22 C17        -1.1132   -0.7135   -2.3318 C.1       1 <0>         0.2743
     23 N4         -1.5706   -0.5054   -3.3506 N.1       1 <0>        -0.3984
     24 H2         -0.7308    1.9097   -0.0072 H         1 <0>         0.0879
     25 H3         -2.1863    1.0826   -0.6120 H         1 <0>         0.0900
     26 H4         -1.8687    1.1597    1.1378 H         1 <0>         0.0992
     27 H5          0.5257   -2.8737   -1.3737 H         1 <0>         0.1562
     28 H6          1.2010   -2.6233    1.1978 H         1 <0>         0.1531
     29 H7         -0.3096    1.7857    1.8989 H         1 <0>         0.1438
     30 H8         -0.1020    2.6735    4.1794 H         1 <0>         0.1434
     31 H9          0.6440   -2.1432    3.3346 H         1 <0>         0.1477
     32 H10         1.5169   -2.7902    7.2861 H         1 <0>         0.1501
     33 H11         2.1143   -2.6808    4.2414 H         1 <0>         0.0935
     34 H12         3.1668   -3.3524    5.5614 H         1 <0>         0.0866
     35 H13         1.0915   -4.9074    4.2904 H         1 <0>         0.0846
     36 H14         1.5891   -5.1715    6.0178 H         1 <0>         0.0934
     37 H15        -0.4884   -3.9720    6.5196 H         1 <0>         0.0860
     38 H16        -0.4610   -3.1174    4.9165 H         1 <0>         0.0902
@<TRIPOS>BOND
     1    1    2 1
     2    1   24 1
     3    1   25 1
     4    1   26 1
     5    2    6 1
     6    2    3 1
     7    3    4 2
     8    3   22 1
     9    4    5 1
    10    4   27 1
    11    5    6 2
    12    5   28 1
    13    6    7 1
    14    7   12 ar
    15    7    8 ar
    16    8    9 ar
    17    8   29 1
    18    9   10 ar
    19    9   30 1
    20   10   16 1
    21   10   11 ar
    22   11   12 ar
    23   11   13 1
    24   12   31 1
    25   13   14 1
    26   13   18 1
    27   14   15 2
    28   14   16 1
    29   16   17 1
    30   18   21 1
    31   18   19 1
    32   18   32 1
    33   19   20 1
    34   19   33 1
    35   19   34 1
    36   20   21 1
    37   20   35 1
    38   20   36 1
    39   21   37 1
    40   21   38 1
    41   22   23 3
@<TRIPOS>MOLECULE
CHEMBL585185
   38    40     0     0     0
SMALL
USER_CHARGES

@<TRIPOS>ATOM
      1 C1          0.1206   -0.2089   -0.6931 C.3       1 <0>        -0.1401
      2 C2          0.2555   -1.6515   -0.2015 C.3       1 <0>        -0.0236
      3 C3         -1.1336   -2.2737   -0.0067 C.3       1 <0>        -0.0601
      4 C4         -1.2081   -2.6355    1.4567 C.2       1 <0>         0.1722
      5 N1         -2.2147   -3.1895    2.0524 N.2       1 <0>        -0.3216
      6 O1         -2.1480   -3.4749    3.4377 O.3       1 <0>        -0.4058
      7 C5          0.0677   -2.2476    2.0897 C.ar      1 <0>        -0.1105
      8 C6          0.9273   -1.6776    1.1510 C.ar      1 <0>        -0.0471
      9 C7          2.1703   -1.2458    1.5295 C.ar      1 <0>        -0.0865
     10 C8          2.5872   -1.3717    2.8564 C.ar      1 <0>         0.0009
     11 C9          1.7314   -1.9420    3.8032 C.ar      1 <0>        -0.1361
     12 C10         0.4837   -2.3756    3.4240 C.ar      1 <0>        -0.0615
     13 C11         3.9285   -0.9042    3.2581 C.2       1 <0>         0.0879
     14 C12         5.0044   -0.7187    2.4164 C.2       1 <0>        -0.1726
     15 C13         6.0742   -0.2720    3.1906 C.2       1 <0>        -0.1090
     16 C14         5.6351   -0.1909    4.4973 C.2       1 <0>         0.0582
     17 N2          4.3149   -0.5755    4.5274 N.pl3     1 <0>        -0.4135
     18 C15         3.4662   -0.6277    5.7204 C.3       1 <0>         0.0554
     19 C16         6.4157    0.2264    5.6229 C.1       1 <0>         0.2764
     20 N3          7.0350    0.5574    6.5159 N.1       1 <0>        -0.4024
     21 C17         1.0648   -2.4745   -1.2058 C.3       1 <0>        -0.1400
     22 H1          1.1100    0.2407   -0.7762 H         1 <0>         0.0648
     23 H2         -0.3650   -0.2015   -1.6689 H         1 <0>         0.0672
     24 H3         -0.4795    0.3619    0.0157 H         1 <0>         0.0598
     25 H4         -1.9098   -1.5504   -0.2568 H         1 <0>         0.1029
     26 H5         -1.2368   -3.1673   -0.6223 H         1 <0>         0.1031
     27 H6         -2.9469   -3.8881    3.7931 H         1 <0>         0.4042
     28 H7          2.8316   -0.8052    0.7982 H         1 <0>         0.1343
     29 H8          2.0500   -2.0415    4.8303 H         1 <0>         0.1315
     30 H9         -0.1785   -2.8160    4.1547 H         1 <0>         0.1367
     31 H10         5.0163   -0.8888    1.3499 H         1 <0>         0.1540
     32 H11         7.0653   -0.0335    2.8338 H         1 <0>         0.1552
     33 H12         3.4640   -1.6416    6.1205 H         1 <0>         0.0863
     34 H13         3.8543    0.0589    6.4727 H         1 <0>         0.0885
     35 H14         2.4490   -0.3394    5.4555 H         1 <0>         0.0985
     36 H15         2.0622   -2.0465   -1.3063 H         1 <0>         0.0649
     37 H16         1.1444   -3.5026   -0.8526 H         1 <0>         0.0604
     38 H17         0.5642   -2.4606   -2.1740 H         1 <0>         0.0671
@<TRIPOS>BOND
     1    1    2 1
     2    1   22 1
     3    1   23 1
     4    1   24 1
     5    2    8 1
     6    2    3 1
     7    2   21 1
     8    3    4 1
     9    3   25 1
    10    3   26 1
    11    4    5 2
    12    4    7 1
    13    5    6 1
    14    6   27 1
    15    7   12 ar
    16    7    8 ar
    17    8    9 ar
    18    9   10 ar
    19    9   28 1
    20   10   11 ar
    21   10   13 1
    22   11   12 ar
    23   11   29 1
    24   12   30 1
    25   13   17 1
    26   13   14 2
    27   14   15 1
    28   14   31 1
    29   15   16 2
    30   15   32 1
    31   16   17 1
    32   16   19 1
    33   17   18 1
    34   18   33 1
    35   18   34 1
    36   18   35 1
    37   19   20 3
    38   21   36 1
    39   21   37 1
    40   21   38 1
@<TRIPOS>MOLECULE
CHEMBL167620
   46    49     0     0     0
SMALL
USER_CHARGES

@<TRIPOS>ATOM
      1 C1         -0.0187    1.5258    0.0104 C.3       1 <0>        -0.1366
      2 C2          0.0021   -0.0041    0.0020 C.3       1 <0>         0.1622
      3 C3          0.6915   -0.4870   -1.2474 C.ar      1 <0>        -0.1779
      4 C4          0.4478    0.1435   -2.4506 C.ar      1 <0>        -0.0452
      5 C5          1.0801   -0.2997   -3.6104 C.ar      1 <0>        -0.1104
      6 C6          1.9589   -1.3806   -3.5558 C.ar      1 <0>        -0.0521
      7 C7          2.2012   -2.0082   -2.3522 C.ar      1 <0>        -0.1836
      8 C8          1.5703   -1.5625   -1.1977 C.ar      1 <0>         0.2323
      9 N1          1.8209   -2.1938    0.0263 N.pl3     1 <0>        -0.7545
     10 C9          0.9284   -1.8881    1.1554 C.3       1 <0>         0.3593
     11 O1          0.6933   -0.4743    1.1600 O.3       1 <0>        -0.3656
     12 C10         1.5826   -2.3004    2.4488 C.ar      1 <0>        -0.0993
     13 C11         1.3762   -1.5567    3.5957 C.ar      1 <0>        -0.0851
     14 C12         1.9763   -1.9350    4.7821 C.ar      1 <0>        -0.1192
     15 C13         2.7826   -3.0571    4.8218 C.ar      1 <0>        -0.1111
     16 C14         2.9883   -3.8014    3.6752 C.ar      1 <0>        -0.1180
     17 C15         2.3847   -3.4256    2.4897 C.ar      1 <0>        -0.1090
     18 C16         0.8178    0.3784   -4.9037 C.ar      1 <0>         0.0079
     19 C17         1.4443   -0.0671   -6.0632 C.ar      1 <0>        -0.0834
     20 C18         1.1939    0.5742   -7.2755 C.ar      1 <0>         0.0137
     21 C19         0.3159    1.6597   -7.3193 C.ar      1 <0>        -0.1170
     22 C20        -0.3028    2.0972   -6.1631 C.ar      1 <0>         0.1130
     23 C21        -0.0612    1.4590   -4.9593 C.ar      1 <0>        -0.1290
     24 F1         -1.1510    3.1478   -6.2096 F         1 <0>        -0.1299
     25 C22         1.8356    0.1214   -8.4730 C.1       1 <0>         0.2498
     26 N2          2.3446   -0.2378   -9.4229 N.1       1 <0>        -0.3991
     27 C23        -1.4344   -0.5306    0.0205 C.3       1 <0>        -0.1738
     28 H1          1.0039    1.9031    0.0027 H         1 <0>         0.0676
     29 H2         -0.5459    1.8868   -0.8726 H         1 <0>         0.0757
     30 H3         -0.5289    1.8773    0.9072 H         1 <0>         0.0696
     31 H4         -0.2334    0.9805   -2.4933 H         1 <0>         0.1302
     32 H5          2.4491   -1.7255   -4.4542 H         1 <0>         0.1297
     33 H6          2.8815   -2.8458   -2.3071 H         1 <0>         0.1280
     34 H7          2.5600   -2.8138    0.1270 H         1 <0>         0.4077
     35 H8         -0.0159   -2.4188    1.0333 H         1 <0>         0.0832
     36 H9          0.7463   -0.6800    3.5646 H         1 <0>         0.1325
     37 H10         1.8156   -1.3535    5.6779 H         1 <0>         0.1270
     38 H11         3.2521   -3.3522    5.7486 H         1 <0>         0.1254
     39 H12         3.6185   -4.6779    3.7062 H         1 <0>         0.1267
     40 H13         2.5424   -4.0091    1.5948 H         1 <0>         0.1216
     41 H14         2.1227   -0.9066   -6.0243 H         1 <0>         0.1424
     42 H15         0.1204    2.1579   -8.2574 H         1 <0>         0.1468
     43 H16        -0.5509    1.8019   -4.0599 H         1 <0>         0.1449
     44 H17        -1.9654   -0.1685   -0.8599 H         1 <0>         0.0733
     45 H18        -1.4219   -1.6205    0.0145 H         1 <0>         0.0582
     46 H19        -1.9391   -0.1779    0.9199 H         1 <0>         0.0708
@<TRIPOS>BOND
     1    1    2 1
     2    1   28 1
     3    1   29 1
     4    1   30 1
     5    2   11 1
     6    2    3 1
     7    2   27 1
     8    3    8 ar
     9    3    4 ar
    10    4    5 ar
    11    4   31 1
    12    5    6 ar
    13    5   18 1
    14    6    7 ar
    15    6   32 1
    16    7    8 ar
    17    7   33 1
    18    8    9 1
    19    9   10 1
    20    9   34 1
    21   10   11 1
    22   10   12 1
    23   10   35 1
    24   12   17 ar
    25   12   13 ar
    26   13   14 ar
    27   13   36 1
    28   14   15 ar
    29   14   37 1
    30   15   16 ar
    31   15   38 1
    32   16   17 ar
    33   16   39 1
    34   17   40 1
    35   18   23 ar
    36   18   19 ar
    37   19   20 ar
    38   19   41 1
    39   20   21 ar
    40   20   25 1
    41   21   22 ar
    42   21   42 1
    43   22   23 ar
    44   22   24 1
    45   23   43 1
    46   25   26 3
    47   27   44 1
    48   27   45 1
    49   27   46 1
@<TRIPOS>MOLECULE
CHEMBL167620__1
   46    49     0     0     0
SMALL
USER_CHARGES

@<TRIPOS>ATOM
      1 C1         -0.0187    1.5258    0.0104 C.3       1 <0>        -0.1736
      2 C2          0.0021   -0.0041    0.0020 C.3       1 <0>         0.1623
      3 C3          0.6915   -0.4870   -1.2474 C.ar      1 <0>        -0.1779
      4 C4          0.0090   -0.4924   -2.4469 C.ar      1 <0>        -0.0452
      5 C5          0.6415   -0.9354   -3.6067 C.ar      1 <0>        -0.1105
      6 C6          1.9643   -1.3729   -3.5558 C.ar      1 <0>        -0.0521
      7 C7          2.6435   -1.3672   -2.3559 C.ar      1 <0>        -0.1835
      8 C8          2.0091   -0.9265   -1.2014 C.ar      1 <0>         0.2323
      9 N1          2.6949   -0.9272    0.0190 N.pl3     1 <0>        -0.7540
     10 C9          2.0984   -0.1923    1.1456 C.3       1 <0>         0.3595
     11 O1          0.6933   -0.4743    1.1600 O.3       1 <0>        -0.3661
     12 C10         2.7232   -0.6475    2.4392 C.ar      1 <0>        -0.1003
     13 C11         1.9373   -0.8195    3.5634 C.ar      1 <0>        -0.0844
     14 C12         2.5103   -1.2370    4.7501 C.ar      1 <0>        -0.1198
     15 C13         3.8692   -1.4829    4.8125 C.ar      1 <0>        -0.1108
     16 C14         4.6549   -1.3118    3.6881 C.ar      1 <0>        -0.1185
     17 C15         4.0812   -0.8984    2.5003 C.ar      1 <0>        -0.1088
     18 C16        -0.0928   -0.9419   -4.8958 C.ar      1 <0>         0.0079
     19 C17         0.5361   -1.3893   -6.0533 C.ar      1 <0>        -0.0834
     20 C18        -0.1591   -1.3930   -7.2618 C.ar      1 <0>         0.0136
     21 C19        -1.4825   -0.9478   -7.3037 C.ar      1 <0>        -0.1170
     22 C20        -2.1009   -0.5041   -6.1497 C.ar      1 <0>         0.1130
     23 C21        -1.4157   -0.5050   -4.9476 C.ar      1 <0>        -0.1291
     24 F1         -3.3808   -0.0739   -6.1947 F         1 <0>        -0.1299
     25 C22         0.4820   -1.8517   -8.4572 C.1       1 <0>         0.2498
     26 N2          0.9906   -2.2156   -9.4056 N.1       1 <0>        -0.3991
     27 C23        -1.4344   -0.5306    0.0205 C.3       1 <0>        -0.1368
     28 H1          1.0039    1.9031    0.0027 H         1 <0>         0.0582
     29 H2         -0.5459    1.8868   -0.8726 H         1 <0>         0.0732
     30 H3         -0.5289    1.8773    0.9072 H         1 <0>         0.0709
     31 H4         -1.0157   -0.1536   -2.4866 H         1 <0>         0.1302
     32 H5          2.4558   -1.7159   -4.4543 H         1 <0>         0.1297
     33 H6          3.6682   -1.7056   -2.3137 H         1 <0>         0.1280
     34 H7          3.5371   -1.3978    0.1189 H         1 <0>         0.4079
     35 H8          2.2587    0.8778    1.0142 H         1 <0>         0.0830
     36 H9          0.8756   -0.6273    3.5146 H         1 <0>         0.1333
     37 H10         1.8965   -1.3707    5.6285 H         1 <0>         0.1268
     38 H11         4.3170   -1.8085    5.7398 H         1 <0>         0.1253
     39 H12         5.7166   -1.5037    3.7369 H         1 <0>         0.1267
     40 H13         4.6944   -0.7683    1.6209 H         1 <0>         0.1222
     41 H14         1.5595   -1.7323   -6.0160 H         1 <0>         0.1424
     42 H15        -2.0229   -0.9498   -8.2388 H         1 <0>         0.1468
     43 H16        -1.9053   -0.1618   -4.0481 H         1 <0>         0.1449
     44 H17        -1.9654   -0.1685   -0.8599 H         1 <0>         0.0758
     45 H18        -1.4219   -1.6205    0.0145 H         1 <0>         0.0676
     46 H19        -1.9391   -0.1779    0.9199 H         1 <0>         0.0696
@<TRIPOS>BOND
     1    1    2 1
     2    1   28 1
     3    1   29 1
     4    1   30 1
     5    2   11 1
     6    2    3 1
     7    2   27 1
     8    3    8 ar
     9    3    4 ar
    10    4    5 ar
    11    4   31 1
    12    5    6 ar
    13    5   18 1
    14    6    7 ar
    15    6   32 1
    16    7    8 ar
    17    7   33 1
    18    8    9 1
    19    9   10 1
    20    9   34 1
    21   10   11 1
    22   10   12 1
    23   10   35 1
    24   12   17 ar
    25   12   13 ar
    26   13   14 ar
    27   13   36 1
    28   14   15 ar
    29   14   37 1
    30   15   16 ar
    31   15   38 1
    32   16   17 ar
    33   16   39 1
    34   17   40 1
    35   18   23 ar
    36   18   19 ar
    37   19   20 ar
    38   19   41 1
    39   20   21 ar
    40   20   25 1
    41   21   22 ar
    42   21   42 1
    43   22   23 ar
    44   22   24 1
    45   23   43 1
    46   25   26 3
    47   27   44 1
    48   27   45 1
    49   27   46 1
@<TRIPOS>MOLECULE
CHEMBL1076438
   57    61     0     0     0
SMALL
USER_CHARGES

@<TRIPOS>ATOM
      1 C1          0.0195    1.6054    0.2961 C.3       1 <0>        -0.1529
      2 C2          0.0041    0.0657    0.2506 C.3       1 <0>        -0.0580
      3 C3         -1.4512   -0.3977    0.3792 C.3       1 <0>        -0.1078
      4 C4         -2.0235    0.1238    1.6973 C.3       1 <0>        -0.1548
      5 C5         -1.2411   -0.4182    2.8822 C.3       1 <0>         0.1153
      6 H1         -1.5913    0.0926    3.7938 H         1 <0>         0.0525
      7 C6          0.2666   -0.2175    2.7759 C.3       1 <0>        -0.0743
      8 C7          0.8104   -0.5521    1.3932 C.3       1 <0>         0.1754
      9 C8          2.3012   -0.2437    1.2827 C.3       1 <0>        -0.1088
     10 C9          2.8463   -0.7106   -0.0886 C.3       1 <0>        -0.1043
     11 C10         2.0826    0.0686   -1.1223 C.3       1 <0>        -0.0797
     12 H2          2.2078    1.1468   -0.9305 H         1 <0>         0.0793
     13 C11         0.5871   -0.3332   -1.0853 C.3       1 <0>         0.0411
     14 C12         0.0618    0.3650   -2.3171 C.2       1 <0>         0.0590
     15 C13         1.0820    0.4316   -3.2175 C.2       1 <0>        -0.1992
     16 C14         0.5567    1.0851   -4.4009 C.ar      1 <0>        -0.0803
     17 C15         1.1370    1.4151   -5.6303 C.ar      1 <0>        -0.0705
     18 C16         0.3318    2.0478   -6.5452 C.ar      1 <0>        -0.1499
     19 C17        -0.9933    2.3483   -6.2753 C.ar      1 <0>        -0.1031
     20 C18        -1.5917    2.0324   -5.0680 C.ar      1 <0>        -0.1313
     21 C19        -0.7977    1.3899   -4.1191 C.ar      1 <0>         0.0984
     22 N1         -1.0586    0.9467   -2.8563 N.pl3     1 <0>        -0.5673
     23 H3         -1.9157    1.0337   -2.4090 H         1 <0>         0.4079
     24 C20         2.3478   -0.1734   -2.6103 C.3       1 <0>        -0.0373
     25 C21         0.4179   -1.8274   -1.3533 C.3       1 <0>        -0.1604
     26 O1          0.7051   -1.9959    1.3148 O.3       1 <0>        -0.5580
     27 C22         0.9025   -1.2283    3.7692 C.3       1 <0>        -0.1333
     28 C23         0.6577    1.1741    3.2629 C.3       1 <0>        -0.1499
     29 O2         -1.5229   -1.8152    3.0408 O.3       1 <0>        -0.5647
     30 H4          1.0500    1.9572    0.3450 H         1 <0>         0.0623
     31 H5         -0.4571    2.0003   -0.6011 H         1 <0>         0.0558
     32 H6         -0.5236    1.9483    1.1768 H         1 <0>         0.0650
     33 H7         -2.0324   -0.0011   -0.4528 H         1 <0>         0.0572
     34 H8         -1.5045   -1.4845    0.3788 H         1 <0>         0.0745
     35 H9         -2.0561    1.2078    1.7165 H         1 <0>         0.0778
     36 H10        -3.0646   -0.2313    1.7771 H         1 <0>         0.0634
     37 H11         2.4748    0.8244    1.3693 H         1 <0>         0.0738
     38 H12         2.8507   -0.7682    2.0597 H         1 <0>         0.0767
     39 H13         3.9121   -0.4590   -0.1441 H         1 <0>         0.0658
     40 H14         2.7307   -1.7815   -0.1960 H         1 <0>         0.0834
     41 H15         2.1692    1.1846   -5.8487 H         1 <0>         0.1278
     42 H16         0.7448    2.3200   -7.5053 H         1 <0>         0.1170
     43 H17        -1.5794    2.8469   -7.0330 H         1 <0>         0.1198
     44 H18        -2.6262    2.2721   -4.8708 H         1 <0>         0.1257
     45 H19         3.2280    0.3852   -2.9355 H         1 <0>         0.0661
     46 H20         2.4514   -1.2229   -2.8489 H         1 <0>         0.0807
     47 H21        -0.6427   -2.0787   -1.3536 H         1 <0>         0.0489
     48 H22         0.8499   -2.0738   -2.3232 H         1 <0>         0.0575
     49 H23         0.9258   -2.3961   -0.5743 H         1 <0>         0.1000
     50 H24        -0.1951   -2.3312    1.4258 H         1 <0>         0.3761
     51 H25         0.6807   -2.2450    3.4448 H         1 <0>         0.0797
     52 H26         1.9824   -1.0824    3.7944 H         1 <0>         0.0499
     53 H27         0.4906   -1.0667    4.7654 H         1 <0>         0.0456
     54 H28         0.4796    1.2469    4.3358 H         1 <0>         0.0597
     55 H29         1.7140    1.3475    3.0574 H         1 <0>         0.0681
     56 H30         0.0590    1.9224    2.7436 H         1 <0>         0.0610
     57 H31        -2.4561   -2.0125    3.2000 H         1 <0>         0.3774
@<TRIPOS>BOND
     1    1    2 1
     2    1   30 1
     3    1   31 1
     4    1   32 1
     5    2    8 1
     6    2   13 1
     7    2    3 1
     8    3    4 1
     9    3   33 1
    10    3   34 1
    11    4    5 1
    12    4   35 1
    13    4   36 1
    14    5    6 1
    15    5    7 1
    16    5   29 1
    17    7    8 1
    18    7   27 1
    19    7   28 1
    20    8    9 1
    21    8   26 1
    22    9   10 1
    23    9   37 1
    24    9   38 1
    25   10   11 1
    26   10   39 1
    27   10   40 1
    28   11   12 1
    29   11   24 1
    30   11   13 1
    31   13   14 1
    32   13   25 1
    33   14   22 1
    34   14   15 2
    35   15   16 1
    36   15   24 1
    37   16   21 ar
    38   16   17 ar
    39   17   18 ar
    40   17   41 1
    41   18   19 ar
    42   18   42 1
    43   19   20 ar
    44   19   43 1
    45   20   21 ar
    46   20   44 1
    47   21   22 1
    48   22   23 1
    49   24   45 1
    50   24   46 1
    51   25   47 1
    52   25   48 1
    53   25   49 1
    54   26   50 1
    55   27   51 1
    56   27   52 1
    57   27   53 1
    58   28   54 1
    59   28   55 1
    60   28   56 1
    61   29   57 1
@<TRIPOS>MOLECULE
CHEMBL314477
   57    62     0     0     0
SMALL
USER_CHARGES

@<TRIPOS>ATOM
      1 C1          0.5820    2.1690   -2.5680 C.ar      1 <0>        -0.1150
      2 C2          1.7934    2.8029   -2.2969 C.ar      1 <0>        -0.1155
      3 C3          2.8473    2.1105   -1.7851 C.ar      1 <0>        -0.1077
      4 C4          2.7155    0.7357   -1.5244 C.ar      1 <0>        -0.0428
      5 C5          1.4834    0.0913   -1.7998 C.ar      1 <0>        -0.0495
      6 C6          0.4176    0.8395   -2.3285 C.ar      1 <0>        -0.1069
      7 C7          1.3515   -1.2830   -1.5388 C.ar      1 <0>        -0.1082
      8 C8          2.4056   -1.9754   -1.0265 C.ar      1 <0>        -0.1120
      9 C9          3.6165   -1.3419   -0.7554 C.ar      1 <0>        -0.1146
     10 C10         3.7810   -0.0121   -0.9959 C.ar      1 <0>        -0.0631
     11 C11         5.0992    0.6543   -0.6967 C.3       1 <0>        -0.0933
     12 C12         5.1577    1.0262    0.7862 C.3       1 <0>        -0.0135
     13 C13         4.1127    2.1071    1.0893 C.3       1 <0>        -0.1083
     14 C14         4.3428    2.6600    2.4984 C.3       1 <0>        -0.1223
     15 C15         5.6319    3.4906    2.5186 C.3       1 <0>        -0.0338
     16 C16         6.7332    2.6748    1.8886 C.2       1 <0>        -0.1963
     17 C17         6.5218    1.5769    1.1184 C.2       1 <0>         0.0891
     18 N1          7.7225    1.1066    0.7334 N.pl3     1 <0>        -0.3180
     19 N2          8.7064    1.9429    1.2821 N.2       1 <0>        -0.2512
     20 C18         8.1083    2.8826    1.9739 C.2       1 <0>         0.0604
     21 C19         8.7898    3.9933    2.7308 C.3       1 <0>         0.3208
     22 O1          7.9447    5.1560    2.7470 O.3       1 <0>        -0.3626
     23 C20         8.8561    6.2774    2.6571 C.3       1 <0>         0.0163
     24 C21         9.9490    5.7197    1.7115 C.3       1 <0>         0.0192
     25 O2         10.0250    4.3291    2.0850 O.3       1 <0>        -0.3679
     26 C22         7.9498   -0.0189   -0.0719 C.ar      1 <0>         0.1418
     27 C23         7.2702   -1.2029    0.1807 C.ar      1 <0>        -0.0918
     28 C24         7.4950   -2.3101   -0.6136 C.ar      1 <0>        -0.1362
     29 C25         8.3979   -2.2399   -1.6613 C.ar      1 <0>         0.1069
     30 C26         9.0770   -1.0599   -1.9145 C.ar      1 <0>        -0.1355
     31 C27         8.8503    0.0511   -1.1261 C.ar      1 <0>        -0.0759
     32 F1          8.6168   -3.3241   -2.4370 F         1 <0>        -0.1316
     33 H1         -0.2401    2.7426   -2.9701 H         1 <0>         0.1228
     34 H2          1.8973    3.8592   -2.4962 H         1 <0>         0.1224
     35 H3          3.7802    2.6148   -1.5806 H         1 <0>         0.1274
     36 H4         -0.5269    0.3620   -2.5433 H         1 <0>         0.1265
     37 H5          0.4186   -1.7872   -1.7433 H         1 <0>         0.1264
     38 H6          2.3015   -3.0317   -0.8268 H         1 <0>         0.1234
     39 H7          4.4370   -1.9144   -0.3487 H         1 <0>         0.1197
     40 H8          5.9141   -0.0303   -0.9321 H         1 <0>         0.0859
     41 H9          5.1960    1.5559   -1.3015 H         1 <0>         0.0793
     42 H10         4.9602    0.1432    1.3941 H         1 <0>         0.0918
     43 H11         4.2042    2.9145    0.3629 H         1 <0>         0.0704
     44 H12         3.1142    1.6744    1.0275 H         1 <0>         0.0756
     45 H13         3.5003    3.2901    2.7833 H         1 <0>         0.0711
     46 H14         4.4324    1.8331    3.2029 H         1 <0>         0.0637
     47 H15         5.4854    4.4098    1.9514 H         1 <0>         0.0746
     48 H16         5.8969    3.7321    3.5480 H         1 <0>         0.0745
     49 H17         8.9868    3.6722    3.7536 H         1 <0>         0.1076
     50 H18         8.3649    7.1452    2.2168 H         1 <0>         0.1134
     51 H19         9.2728    6.5209    3.6344 H         1 <0>         0.0819
     52 H20         9.6461    5.8227    0.6695 H         1 <0>         0.0762
     53 H21        10.9021    6.2185    1.8877 H         1 <0>         0.1049
     54 H22         6.5665   -1.2582    0.9981 H         1 <0>         0.1406
     55 H23         6.9665   -3.2313   -0.4174 H         1 <0>         0.1482
     56 H24         9.7811   -1.0072   -2.7318 H         1 <0>         0.1474
     57 H25         9.3769    0.9725   -1.3266 H         1 <0>         0.1433
@<TRIPOS>BOND
     1    1    6 ar
     2    1    2 ar
     3    1   33 1
     4    2    3 ar
     5    2   34 1
     6    3    4 ar
     7    3   35 1
     8    4   10 ar
     9    4    5 ar
    10    5    6 ar
    11    5    7 ar
    12    6   36 1
    13    7    8 ar
    14    7   37 1
    15    8    9 ar
    16    8   38 1
    17    9   10 ar
    18    9   39 1
    19   10   11 1
    20   11   12 1
    21   11   40 1
    22   11   41 1
    23   12   17 1
    24   12   13 1
    25   12   42 1
    26   13   14 1
    27   13   43 1
    28   13   44 1
    29   14   15 1
    30   14   45 1
    31   14   46 1
    32   15   16 1
    33   15   47 1
    34   15   48 1
    35   16   20 1
    36   16   17 2
    37   17   18 1
    38   18   19 1
    39   18   26 1
    40   19   20 2
    41   20   21 1
    42   21   25 1
    43   21   22 1
    44   21   49 1
    45   22   23 1
    46   23   24 1
    47   23   50 1
    48   23   51 1
    49   24   25 1
    50   24   52 1
    51   24   53 1
    52   26   31 ar
    53   26   27 ar
    54   27   28 ar
    55   27   54 1
    56   28   29 ar
    57   28   55 1
    58   29   30 ar
    59   29   32 1
    60   30   31 ar
    61   30   56 1
    62   31   57 1
@<TRIPOS>MOLECULE
CHEMBL314477__1
   57    62     0     0     0
SMALL
USER_CHARGES

@<TRIPOS>ATOM
      1 C1         -0.0195   -0.0508    0.3722 C.ar      1 <0>        -0.1161
      2 C2          0.9342    0.9656    0.3750 C.ar      1 <0>        -0.1147
      3 C3          2.2556    0.6872    0.2067 C.ar      1 <0>        -0.1209
      4 C4          2.6684   -0.6443    0.0274 C.ar      1 <0>        -0.0429
      5 C5          1.6985   -1.6781    0.0250 C.ar      1 <0>        -0.0497
      6 C6          0.3430   -1.3514    0.2015 C.ar      1 <0>        -0.1040
      7 C7          2.1110   -3.0092   -0.1537 C.ar      1 <0>        -0.1083
      8 C8          3.4329   -3.2879   -0.3216 C.ar      1 <0>        -0.1120
      9 C9          4.3862   -2.2718   -0.3188 C.ar      1 <0>        -0.1098
     10 C10         4.0235   -0.9708   -0.1489 C.ar      1 <0>        -0.0649
     11 C11         5.0699    0.1137   -0.1500 C.3       1 <0>        -0.0891
     12 C12         5.3538    0.5498    1.2888 C.3       1 <0>        -0.0158
     13 C13         5.8032   -0.6607    2.1163 C.3       1 <0>        -0.1073
     14 C14         6.3308   -0.1855    3.4728 C.3       1 <0>        -0.1208
     15 C15         7.6664    0.5423    3.2766 C.3       1 <0>        -0.0414
     16 C16         7.4931    1.5680    2.1843 C.2       1 <0>        -0.1956
     17 C17         6.4628    1.5719    1.3003 C.2       1 <0>         0.0890
     18 N1          6.6292    2.6246    0.4784 N.pl3     1 <0>        -0.3194
     19 N2          7.8015    3.2903    0.8668 N.2       1 <0>        -0.2502
     20 C18         8.3165    2.6530    1.8905 C.2       1 <0>         0.0602
     21 C19         9.5794    3.0287    2.6220 C.3       1 <0>         0.3213
     22 O1          9.4746    2.6342    4.0004 O.3       1 <0>        -0.3632
     23 C20        10.1634    3.6735    4.7363 C.3       1 <0>         0.0158
     24 C21         9.7944    4.9360    3.9179 C.3       1 <0>         0.0192
     25 O2          9.7671    4.4487    2.5610 O.3       1 <0>        -0.3679
     26 C22         5.7824    2.9903   -0.5781 C.ar      1 <0>         0.1441
     27 C23         4.4109    3.0640   -0.3759 C.ar      1 <0>        -0.0986
     28 C24         3.5787    3.4248   -1.4173 C.ar      1 <0>        -0.1347
     29 C25         4.1115    3.7124   -2.6628 C.ar      1 <0>         0.1079
     30 C26         5.4793    3.6389   -2.8665 C.ar      1 <0>        -0.1338
     31 C27         6.3152    3.2845   -1.8258 C.ar      1 <0>        -0.0755
     32 F1          3.2958    4.0647   -3.6805 F         1 <0>        -0.1308
     33 H1         -1.0613    0.1970    0.5121 H         1 <0>         0.1233
     34 H2          0.6198    1.9897    0.5126 H         1 <0>         0.1220
     35 H3          2.9833    1.4852    0.2104 H         1 <0>         0.1276
     36 H4         -0.4071   -2.1284    0.2019 H         1 <0>         0.1271
     37 H5          1.3833   -3.8072   -0.1574 H         1 <0>         0.1267
     38 H6          3.7473   -4.3119   -0.4588 H         1 <0>         0.1240
     39 H7          5.4286   -2.5201   -0.4539 H         1 <0>         0.1225
     40 H8          5.9862   -0.2660   -0.6021 H         1 <0>         0.0789
     41 H9          4.7082    0.9670   -0.7237 H         1 <0>         0.0837
     42 H10         4.4531    0.9804    1.7263 H         1 <0>         0.0905
     43 H11         4.9567   -1.3300    2.2701 H         1 <0>         0.0757
     44 H12         6.5934   -1.1909    1.5848 H         1 <0>         0.0704
     45 H13         5.6094    0.4951    3.9249 H         1 <0>         0.0633
     46 H14         6.4782   -1.0451    4.1266 H         1 <0>         0.0713
     47 H15         7.9540    1.0382    4.2037 H         1 <0>         0.0869
     48 H16         8.4360   -0.1740    2.9888 H         1 <0>         0.0696
     49 H17        10.4313    2.5267    2.1635 H         1 <0>         0.1079
     50 H18         9.7856    3.7454    5.7562 H         1 <0>         0.1135
     51 H19        11.2406    3.5065    4.7317 H         1 <0>         0.0821
     52 H20         8.8148    5.3128    4.2117 H         1 <0>         0.0763
     53 H21        10.5559    5.7071    4.0349 H         1 <0>         0.1050
     54 H22         3.9950    2.8391    0.5951 H         1 <0>         0.1410
     55 H23         2.5117    3.4823   -1.2604 H         1 <0>         0.1482
     56 H24         5.8930    3.8632   -3.8386 H         1 <0>         0.1483
     57 H25         7.3823    3.2316   -1.9839 H         1 <0>         0.1441
@<TRIPOS>BOND
     1    1    6 ar
     2    1    2 ar
     3    1   33 1
     4    2    3 ar
     5    2   34 1
     6    3    4 ar
     7    3   35 1
     8    4   10 ar
     9    4    5 ar
    10    5    6 ar
    11    5    7 ar
    12    6   36 1
    13    7    8 ar
    14    7   37 1
    15    8    9 ar
    16    8   38 1
    17    9   10 ar
    18    9   39 1
    19   10   11 1
    20   11   12 1
    21   11   40 1
    22   11   41 1
    23   12   17 1
    24   12   13 1
    25   12   42 1
    26   13   14 1
    27   13   43 1
    28   13   44 1
    29   14   15 1
    30   14   45 1
    31   14   46 1
    32   15   16 1
    33   15   47 1
    34   15   48 1
    35   16   20 1
    36   16   17 2
    37   17   18 1
    38   18   19 1
    39   18   26 1
    40   19   20 2
    41   20   21 1
    42   21   25 1
    43   21   22 1
    44   21   49 1
    45   22   23 1
    46   23   24 1
    47   23   50 1
    48   23   51 1
    49   24   25 1
    50   24   52 1
    51   24   53 1
    52   26   31 ar
    53   26   27 ar
    54   27   28 ar
    55   27   54 1
    56   28   29 ar
    57   28   55 1
    58   29   30 ar
    59   29   32 1
    60   30   31 ar
    61   30   56 1
    62   31   57 1
@<TRIPOS>MOLECULE
CHEMBL1209367
   38    40     0     0     0
SMALL
USER_CHARGES

@<TRIPOS>ATOM
      1 C1          1.3644   -2.9244    1.4263 C.3       1 <0>         0.0564
      2 N1          0.6157   -1.9488    0.6301 N.pl3     1 <0>        -0.4149
      3 C2          0.4641   -1.9749   -0.7371 C.2       1 <0>         0.0549
      4 C3         -0.3060   -0.8886   -1.1019 C.2       1 <0>        -0.1079
      5 C4         -0.6264   -0.1927    0.0634 C.2       1 <0>        -0.1770
      6 C5         -0.0539   -0.8639    1.1214 C.2       1 <0>         0.0913
      7 C6         -0.1454   -0.4750    2.5441 C.ar      1 <0>        -0.0218
      8 C7         -0.4572    0.8404    2.8928 C.ar      1 <0>        -0.0893
      9 C8         -0.5410    1.1966    4.2229 C.ar      1 <0>        -0.0999
     10 C9         -0.3168    0.2537    5.2103 C.ar      1 <0>        -0.1054
     11 C10        -0.0069   -1.0516    4.8717 C.ar      1 <0>        -0.1036
     12 C11         0.0740   -1.4228    3.5455 C.ar      1 <0>        -0.1206
     13 C12        -0.4101    0.6503    6.6612 C.3       1 <0>         0.1884
     14 C13         0.9635    0.9931    7.1776 C.ar      1 <0>        -0.1131
     15 C14         1.8374   -0.0150    7.5395 C.ar      1 <0>        -0.1104
     16 C15         3.0974    0.2995    8.0132 C.ar      1 <0>        -0.1158
     17 C16         3.4837    1.6221    8.1245 C.ar      1 <0>        -0.1174
     18 C17         2.6102    2.6302    7.7616 C.ar      1 <0>        -0.1159
     19 C18         1.3517    2.3156    7.2840 C.ar      1 <0>        -0.1067
     20 O1         -0.9461   -0.4365    7.4186 O.3       1 <0>        -0.5449
     21 C19         1.0100   -2.9560   -1.6259 C.1       1 <0>         0.2769
     22 N2          1.4430   -3.7344   -2.3310 N.1       1 <0>        -0.4036
     23 H1          0.6807   -3.6822    1.8092 H         1 <0>         0.0855
     24 H2          2.1205   -3.3997    0.8015 H         1 <0>         0.0878
     25 H3          1.8488   -2.4173    2.2607 H         1 <0>         0.0977
     26 H4         -0.6049   -0.6256   -2.1058 H         1 <0>         0.1546
     27 H5         -1.2191    0.7079    0.1255 H         1 <0>         0.1532
     28 H6         -0.6321    1.5774    2.1230 H         1 <0>         0.1344
     29 H7         -0.7818    2.2139    4.4940 H         1 <0>         0.1305
     30 H8          0.1676   -1.7825    5.6474 H         1 <0>         0.1222
     31 H9          0.3112   -2.4430    3.2825 H         1 <0>         0.1281
     32 H10        -1.0623    1.5181    6.7595 H         1 <0>         0.1186
     33 H11         1.5355   -1.0483    7.4526 H         1 <0>         0.1174
     34 H12         3.7798   -0.4881    8.2966 H         1 <0>         0.1239
     35 H13         4.4679    1.8679    8.4952 H         1 <0>         0.1236
     36 H14         2.9119    3.6635    7.8489 H         1 <0>         0.1251
     37 H15         0.6706    3.1031    6.9970 H         1 <0>         0.1245
     38 H16        -0.4159   -1.2441    7.3770 H         1 <0>         0.3731
@<TRIPOS>BOND
     1    1    2 1
     2    1   23 1
     3    1   24 1
     4    1   25 1
     5    2    6 1
     6    2    3 1
     7    3    4 2
     8    3   21 1
     9    4    5 1
    10    4   26 1
    11    5    6 2
    12    5   27 1
    13    6    7 1
    14    7   12 ar
    15    7    8 ar
    16    8    9 ar
    17    8   28 1
    18    9   10 ar
    19    9   29 1
    20   10   11 ar
    21   10   13 1
    22   11   12 ar
    23   11   30 1
    24   12   31 1
    25   13   14 1
    26   13   20 1
    27   13   32 1
    28   14   19 ar
    29   14   15 ar
    30   15   16 ar
    31   15   33 1
    32   16   17 ar
    33   16   34 1
    34   17   18 ar
    35   17   35 1
    36   18   19 ar
    37   18   36 1
    38   19   37 1
    39   20   38 1
    40   21   22 3
@<TRIPOS>MOLECULE
CHEMBL1209367__1
   38    40     0     0     0
SMALL
USER_CHARGES

@<TRIPOS>ATOM
      1 C1          1.3644   -2.9244    1.4263 C.3       1 <0>         0.0562
      2 N1          0.6157   -1.9488    0.6301 N.pl3     1 <0>        -0.4148
      3 C2          0.4641   -1.9749   -0.7371 C.2       1 <0>         0.0551
      4 C3         -0.3060   -0.8886   -1.1019 C.2       1 <0>        -0.1080
      5 C4         -0.6264   -0.1927    0.0634 C.2       1 <0>        -0.1770
      6 C5         -0.0539   -0.8639    1.1214 C.2       1 <0>         0.0912
      7 C6         -0.1454   -0.4750    2.5441 C.ar      1 <0>        -0.0214
      8 C7         -0.4572    0.8404    2.8928 C.ar      1 <0>        -0.0896
      9 C8         -0.5410    1.1966    4.2229 C.ar      1 <0>        -0.0996
     10 C9         -0.3168    0.2537    5.2103 C.ar      1 <0>        -0.1056
     11 C10        -0.0069   -1.0516    4.8717 C.ar      1 <0>        -0.1028
     12 C11         0.0740   -1.4228    3.5455 C.ar      1 <0>        -0.1209
     13 C12        -0.4101    0.6503    6.6612 C.3       1 <0>         0.1885
     14 C13        -1.7478    0.2284    7.2123 C.ar      1 <0>        -0.1133
     15 C14        -1.9230   -1.0552    7.6946 C.ar      1 <0>        -0.1108
     16 C15        -3.1500   -1.4422    8.2000 C.ar      1 <0>        -0.1155
     17 C16        -4.2017   -0.5454    8.2237 C.ar      1 <0>        -0.1176
     18 C17        -4.0263    0.7385    7.7422 C.ar      1 <0>        -0.1156
     19 C18        -2.7981    1.1267    7.2407 C.ar      1 <0>        -0.1070
     20 O1          0.6325    0.0087    7.3984 O.3       1 <0>        -0.5452
     21 C19         1.0100   -2.9560   -1.6259 C.1       1 <0>         0.2769
     22 N2          1.4430   -3.7344   -2.3310 N.1       1 <0>        -0.4035
     23 H1          0.6807   -3.6822    1.8092 H         1 <0>         0.0852
     24 H2          2.1205   -3.3997    0.8015 H         1 <0>         0.0880
     25 H3          1.8488   -2.4173    2.2607 H         1 <0>         0.0982
     26 H4         -0.6049   -0.6256   -2.1058 H         1 <0>         0.1546
     27 H5         -1.2191    0.7079    0.1255 H         1 <0>         0.1531
     28 H6         -0.6321    1.5774    2.1230 H         1 <0>         0.1345
     29 H7         -0.7818    2.2139    4.4940 H         1 <0>         0.1308
     30 H8          0.1676   -1.7825    5.6474 H         1 <0>         0.1218
     31 H9          0.3112   -2.4430    3.2825 H         1 <0>         0.1280
     32 H10        -0.3053    1.7316    6.7498 H         1 <0>         0.1184
     33 H11        -1.1013   -1.7558    7.6761 H         1 <0>         0.1177
     34 H12        -3.2870   -2.4452    8.5762 H         1 <0>         0.1240
     35 H13        -5.1606   -0.8480    8.6179 H         1 <0>         0.1236
     36 H14        -4.8481    1.4390    7.7604 H         1 <0>         0.1250
     37 H15        -2.6599    2.1309    6.8680 H         1 <0>         0.1242
     38 H16         0.6015   -0.9572    7.3640 H         1 <0>         0.3731
@<TRIPOS>BOND
     1    1    2 1
     2    1   23 1
     3    1   24 1
     4    1   25 1
     5    2    6 1
     6    2    3 1
     7    3    4 2
     8    3   21 1
     9    4    5 1
    10    4   26 1
    11    5    6 2
    12    5   27 1
    13    6    7 1
    14    7   12 ar
    15    7    8 ar
    16    8    9 ar
    17    8   28 1
    18    9   10 ar
    19    9   29 1
    20   10   11 ar
    21   10   13 1
    22   11   12 ar
    23   11   30 1
    24   12   31 1
    25   13   14 1
    26   13   20 1
    27   13   32 1
    28   14   19 ar
    29   14   15 ar
    30   15   16 ar
    31   15   33 1
    32   16   17 ar
    33   16   34 1
    34   17   18 ar
    35   17   35 1
    36   18   19 ar
    37   18   36 1
    38   19   37 1
    39   20   38 1
    40   21   22 3
@<TRIPOS>MOLECULE
CHEMBL412874
   50    54     0     0     0
SMALL
USER_CHARGES

@<TRIPOS>ATOM
      1 C1         -0.0167    1.3790    0.0096 C.ar      1 <0>        -0.1172
      2 C2          1.1687    2.0919    0.0021 C.ar      1 <0>        -0.1167
      3 C3          2.3774    1.4258   -0.0129 C.ar      1 <0>        -0.1098
      4 C4          2.4022    0.0327   -0.0206 C.ar      1 <0>        -0.0482
      5 C5          1.2051   -0.6804   -0.0130 C.ar      1 <0>        -0.1110
      6 C6          0.0021   -0.0041    0.0020 C.ar      1 <0>        -0.1169
      7 C7          3.6988   -0.6890   -0.0373 C.ar      1 <0>        -0.0395
      8 C8          4.8959    0.0257   -0.0396 C.ar      1 <0>        -0.1071
      9 C9          6.1032   -0.6444   -0.0556 C.ar      1 <0>        -0.1102
     10 C10         6.1325   -2.0252   -0.0695 C.ar      1 <0>        -0.1088
     11 C11         4.9417   -2.7502   -0.0669 C.ar      1 <0>        -0.0402
     12 C12         3.7221   -2.0799   -0.0450 C.ar      1 <0>        -0.1004
     13 C13         4.9746   -4.2333   -0.0817 C.ar      1 <0>        -0.0496
     14 C14         3.7857   -4.9615   -0.0849 C.ar      1 <0>        -0.0800
     15 C15         3.8151   -6.3377   -0.0987 C.ar      1 <0>        -0.1169
     16 C16         5.0342   -7.0159   -0.1090 C.ar      1 <0>         0.1085
     17 C17         6.2167   -6.2826   -0.1057 C.ar      1 <0>        -0.1063
     18 C18         6.1952   -4.9083   -0.0984 C.ar      1 <0>        -0.0635
     19 C19         7.3362   -7.2933   -0.1184 C.3       1 <0>        -0.0111
     20 C20         8.1954   -7.1505    1.1342 C.3       1 <0>        -0.0918
     21 C21         8.8597   -5.7712    1.1413 C.3       1 <0>        -0.1265
     22 C22         9.7266   -5.6168   -0.1099 C.3       1 <0>        -0.1229
     23 C23         8.8526   -5.7481   -1.3587 C.3       1 <0>        -0.1267
     24 C24         8.1881   -7.1273   -1.3730 C.3       1 <0>        -0.0919
     25 C25         6.6363   -8.6308   -0.1287 C.2       1 <0>         0.2689
     26 N1          5.3146   -8.3817   -0.1226 N.pl3     1 <0>        -0.5886
     27 S1          7.3336  -10.0697   -0.1447 S.2       1 <0>        -0.3769
     28 H1         -0.9602    1.9042    0.0260 H         1 <0>         0.1239
     29 H2          1.1483    3.1716    0.0077 H         1 <0>         0.1254
     30 H3          3.3023    1.9833   -0.0191 H         1 <0>         0.1260
     31 H4          1.2187   -1.7603   -0.0193 H         1 <0>         0.1237
     32 H5         -0.9264   -0.5558    0.0082 H         1 <0>         0.1250
     33 H6          4.8790    1.1055   -0.0292 H         1 <0>         0.1277
     34 H7          7.0280   -0.0867   -0.0577 H         1 <0>         0.1292
     35 H8          7.0795   -2.5441   -0.0827 H         1 <0>         0.1257
     36 H9          2.7972   -2.6376   -0.0387 H         1 <0>         0.1286
     37 H10         2.8378   -4.4438   -0.0762 H         1 <0>         0.1367
     38 H11         2.8900   -6.8950   -0.1011 H         1 <0>         0.1324
     39 H12         7.1212   -4.3524   -0.1005 H         1 <0>         0.1443
     40 H13         7.5681   -7.2563    2.0193 H         1 <0>         0.0653
     41 H14         8.9635   -7.9239    1.1383 H         1 <0>         0.0889
     42 H15         8.0916   -4.9978    1.1489 H         1 <0>         0.0691
     43 H16         9.4833   -5.6727    2.0299 H         1 <0>         0.0725
     44 H17        10.2039   -4.6369   -0.1022 H         1 <0>         0.0670
     45 H18        10.4920   -6.3928   -0.1192 H         1 <0>         0.0691
     46 H19         8.0846   -4.9748   -1.3477 H         1 <0>         0.0692
     47 H20         9.4711   -5.6335   -2.2488 H         1 <0>         0.0725
     48 H21         8.9561   -7.9005   -1.3958 H         1 <0>         0.0889
     49 H22         7.5557   -7.2168   -2.2562 H         1 <0>         0.0653
     50 H23         4.6343   -9.0732   -0.1271 H         1 <0>         0.4248
@<TRIPOS>BOND
     1    1    6 ar
     2    1    2 ar
     3    1   28 1
     4    2    3 ar
     5    2   29 1
     6    3    4 ar
     7    3   30 1
     8    4    5 ar
     9    4    7 1
    10    5    6 ar
    11    5   31 1
    12    6   32 1
    13    7   12 ar
    14    7    8 ar
    15    8    9 ar
    16    8   33 1
    17    9   10 ar
    18    9   34 1
    19   10   11 ar
    20   10   35 1
    21   11   12 ar
    22   11   13 1
    23   12   36 1
    24   13   18 ar
    25   13   14 ar
    26   14   15 ar
    27   14   37 1
    28   15   16 ar
    29   15   38 1
    30   16   26 1
    31   16   17 ar
    32   17   18 ar
    33   17   19 1
    34   18   39 1
    35   19   24 1
    36   19   20 1
    37   19   25 1
    38   20   21 1
    39   20   40 1
    40   20   41 1
    41   21   22 1
    42   21   42 1
    43   21   43 1
    44   22   23 1
    45   22   44 1
    46   22   45 1
    47   23   24 1
    48   23   46 1
    49   23   47 1
    50   24   48 1
    51   24   49 1
    52   25   26 1
    53   25   27 2
    54   26   50 1
@<TRIPOS>MOLECULE
CHEMBL404432
   47    50     0     0     0
SMALL
USER_CHARGES

@<TRIPOS>ATOM
      1 C1         -0.0178    1.4608    0.0101 C.3       1 <0>         0.1024
      2 N1          0.0021   -0.0041    0.0020 N.pl3     1 <0>        -0.5973
      3 C2         -1.2108   -0.6857    0.0042 C.ar      1 <0>         0.2101
      4 C3         -2.1682   -0.2068   -0.9020 C.ar      1 <0>        -0.1556
      5 C4         -3.4133   -0.7849   -0.9862 C.ar      1 <0>        -0.0903
      6 C5         -3.7244   -1.8532   -0.1642 C.ar      1 <0>        -0.1383
      7 C6         -2.7854   -2.3296    0.7220 C.ar      1 <0>        -0.1015
      8 C7         -1.5153   -1.7552    0.8116 C.ar      1 <0>        -0.1426
      9 C8         -0.5925   -2.4078    1.8041 C.3       1 <0>         0.2328
     10 H1         -0.2714   -3.3279    1.3160 H         1 <0>         0.0552
     11 C9         -1.4204   -2.8718    2.9900 C.3       1 <0>         0.1482
     12 H2         -2.2965   -2.2299    3.0825 H         1 <0>         0.1084
     13 C10        -0.6335   -2.8262    4.2954 C.3       1 <0>        -0.1306
     14 C11        -0.0879   -1.3956    4.4412 C.3       1 <0>        -0.1269
     15 C12         1.0374   -1.2418    3.4229 C.3       1 <0>         0.1395
     16 N2          0.6174   -1.7037    2.1022 N.pl3     1 <0>        -0.6346
     17 C13         1.5503   -1.4582    1.0777 C.ar      1 <0>         0.1620
     18 C14         1.2360   -0.6540   -0.0133 C.ar      1 <0>         0.1554
     19 C15         2.1274   -0.4820   -1.0587 C.ar      1 <0>        -0.1078
     20 C16         3.3625   -1.1061   -1.0130 C.ar      1 <0>        -0.1025
     21 C17         3.7022   -1.8942    0.0719 C.ar      1 <0>        -0.0341
     22 C18         2.7998   -2.0602    1.1349 C.ar      1 <0>        -0.1141
     23 Cl1         5.2632   -2.6514    0.1336 Cl        1 <0>        -0.0646
     24 N3         -1.8629   -4.2479    2.7515 N.am      1 <0>        -0.7000
     25 C19        -2.9748   -4.7124    3.3552 C.2       1 <0>         0.4855
     26 O1         -3.6090   -3.9912    4.0958 O.2       1 <0>        -0.4657
     27 C20        -3.4300   -6.1279    3.1099 C.3       1 <0>         0.4510
     28 F1         -4.5973   -6.3755    3.8401 F         1 <0>        -0.1498
     29 F2         -3.6865   -6.3055    1.7461 F         1 <0>        -0.1651
     30 F3         -2.4287   -7.0167    3.5157 F         1 <0>        -0.1651
     31 H3          1.0048    1.8381    0.0023 H         1 <0>         0.0738
     32 H4         -0.5450    1.8219   -0.8730 H         1 <0>         0.0548
     33 H5         -0.5280    1.8123    0.9069 H         1 <0>         0.0551
     34 H6         -1.9243    0.6279   -1.5425 H         1 <0>         0.1241
     35 H7         -4.1423   -0.4078   -1.6882 H         1 <0>         0.1261
     36 H8         -4.7009   -2.3115   -0.2174 H         1 <0>         0.1242
     37 H9         -3.0356   -3.1636    1.3609 H         1 <0>         0.1205
     38 H10        -1.2895   -3.0613    5.1336 H         1 <0>         0.0811
     39 H11         0.1919   -3.5370    4.2571 H         1 <0>         0.0775
     40 H12        -0.8777   -0.6734    4.2345 H         1 <0>         0.0740
     41 H13         0.2996   -1.2462    5.4490 H         1 <0>         0.0877
     42 H14         1.3201   -0.1910    3.3595 H         1 <0>         0.0575
     43 H15         1.8988   -1.8226    3.7525 H         1 <0>         0.0559
     44 H16         1.8609    0.1346   -1.9044 H         1 <0>         0.1372
     45 H17         4.0621   -0.9770   -1.8256 H         1 <0>         0.1381
     46 H18         3.0646   -2.6812    1.9779 H         1 <0>         0.1365
     47 H19        -1.3557   -4.8247    2.1592 H         1 <0>         0.4119
@<TRIPOS>BOND
     1    1    2 1
     2    1   31 1
     3    1   32 1
     4    1   33 1
     5    2   18 1
     6    2    3 1
     7    3    8 ar
     8    3    4 ar
     9    4    5 ar
    10    4   34 1
    11    5    6 ar
    12    5   35 1
    13    6    7 ar
    14    6   36 1
    15    7    8 ar
    16    7   37 1
    17    8    9 1
    18    9   10 1
    19    9   16 1
    20    9   11 1
    21   11   12 1
    22   11   13 1
    23   11   24 1
    24   13   14 1
    25   13   38 1
    26   13   39 1
    27   14   15 1
    28   14   40 1
    29   14   41 1
    30   15   16 1
    31   15   42 1
    32   15   43 1
    33   16   17 1
    34   17   22 ar
    35   17   18 ar
    36   18   19 ar
    37   19   20 ar
    38   19   44 1
    39   20   21 ar
    40   20   45 1
    41   21   22 ar
    42   21   23 1
    43   22   46 1
    44   24   25 am
    45   24   47 1
    46   25   26 2
    47   25   27 1
    48   27   28 1
    49   27   29 1
    50   27   30 1
@<TRIPOS>MOLECULE
CHEMBL252449
   43    46     0     0     0
SMALL
USER_CHARGES

@<TRIPOS>ATOM
      1 C1         -0.0165    1.3690    0.0096 C.ar      1 <0>        -0.0997
      2 C2          1.1797    2.0649    0.0019 C.ar      1 <0>        -0.1097
      3 C3          2.3594    1.3647    0.0102 C.ar      1 <0>        -0.0865
      4 C4          2.3854   -0.0433    0.0080 C.ar      1 <0>        -0.0992
      5 C5          1.2014   -0.7308   -0.0229 C.ar      1 <0>        -0.0806
      6 C6          0.0021   -0.0041    0.0020 C.ar      1 <0>        -0.1309
      7 C7          0.9817   -2.2118   -0.1413 C.3       1 <0>         0.2241
      8 H1          0.6917   -2.3519   -1.1826 H         1 <0>         0.0626
      9 C8         -0.2772   -2.5644    0.6378 C.3       1 <0>         0.1467
     10 H2         -0.4459   -1.8056    1.4019 H         1 <0>         0.1121
     11 C9         -0.1661   -3.9297    1.3094 C.3       1 <0>        -0.1303
     12 C10         1.1355   -3.9170    2.1312 C.3       1 <0>        -0.1279
     13 C11         2.2866   -4.0199    1.1341 C.3       1 <0>         0.1349
     14 N1          2.0998   -3.0722    0.0350 N.pl3     1 <0>        -0.6389
     15 C12         3.1230   -3.1039   -0.9235 C.ar      1 <0>         0.2057
     16 C13         3.2306   -4.2203   -1.7489 C.ar      1 <0>        -0.1233
     17 C14         4.1847   -4.2434   -2.7501 C.ar      1 <0>        -0.0060
     18 C15         5.0277   -3.1625   -2.9404 C.ar      1 <0>        -0.1179
     19 C16         4.9415   -2.0624   -2.1051 C.ar      1 <0>        -0.0470
     20 C17         4.0080   -2.0579   -1.0792 C.ar      1 <0>        -0.1494
     21 S1          3.9903   -0.7547    0.0741 S.3       1 <0>         0.0168
     22 Cl1         4.3261   -5.6379   -3.7743 Cl        1 <0>        -0.0587
     23 N2         -1.4185   -2.5777   -0.2807 N.am      1 <0>        -0.7017
     24 C18        -2.6634   -2.3611    0.1881 C.2       1 <0>         0.4855
     25 O1         -2.8388   -2.1551    1.3704 O.2       1 <0>        -0.4645
     26 C19        -3.8374   -2.3749   -0.7567 C.3       1 <0>         0.4513
     27 F1         -5.0142   -2.1274   -0.0418 F         1 <0>        -0.1492
     28 F2         -3.6652   -1.3838   -1.7289 F         1 <0>        -0.1653
     29 F3         -3.9226   -3.6263   -1.3764 F         1 <0>        -0.1648
     30 H3         -0.9563    1.9011    0.0259 H         1 <0>         0.1294
     31 H4          1.1845    3.1448   -0.0108 H         1 <0>         0.1332
     32 H5          3.2929    1.9078    0.0183 H         1 <0>         0.1317
     33 H6         -0.9351   -0.5406    0.0161 H         1 <0>         0.1236
     34 H7         -1.0202   -4.0921    1.9669 H         1 <0>         0.0824
     35 H8         -0.1220   -4.7141    0.5538 H         1 <0>         0.0783
     36 H9          1.2120   -2.9866    2.6939 H         1 <0>         0.0766
     37 H10         1.1549   -4.7681    2.8118 H         1 <0>         0.0898
     38 H11         3.2238   -3.7970    1.6440 H         1 <0>         0.0631
     39 H12         2.3276   -5.0342    0.7370 H         1 <0>         0.0614
     40 H13         2.5721   -5.0646   -1.6077 H         1 <0>         0.1403
     41 H14         5.7525   -3.1772   -3.7410 H         1 <0>         0.1428
     42 H15         5.5949   -1.2149   -2.2510 H         1 <0>         0.1474
     43 H16        -1.2782   -2.7425   -1.2262 H         1 <0>         0.4118
@<TRIPOS>BOND
     1    1    6 ar
     2    1    2 ar
     3    1   30 1
     4    2    3 ar
     5    2   31 1
     6    3    4 ar
     7    3   32 1
     8    4   21 1
     9    4    5 ar
    10    5    6 ar
    11    5    7 1
    12    6   33 1
    13    7    8 1
    14    7   14 1
    15    7    9 1
    16    9   10 1
    17    9   11 1
    18    9   23 1
    19   11   12 1
    20   11   34 1
    21   11   35 1
    22   12   13 1
    23   12   36 1
    24   12   37 1
    25   13   14 1
    26   13   38 1
    27   13   39 1
    28   14   15 1
    29   15   20 ar
    30   15   16 ar
    31   16   17 ar
    32   16   40 1
    33   17   18 ar
    34   17   22 1
    35   18   19 ar
    36   18   41 1
    37   19   20 ar
    38   19   42 1
    39   20   21 1
    40   23   24 am
    41   23   43 1
    42   24   25 2
    43   24   26 1
    44   26   27 1
    45   26   28 1
    46   26   29 1
@<TRIPOS>MOLECULE
CHEMBL403139
   45    48     0     0     0
SMALL
USER_CHARGES

@<TRIPOS>ATOM
      1 C1         -0.0166    1.3701    0.0096 C.ar      1 <0>        -0.1134
      2 C2          1.1800    2.0636    0.0019 C.ar      1 <0>        -0.1148
      3 C3          2.3628    1.3640    0.0025 C.ar      1 <0>        -0.1284
      4 C4          2.3859   -0.0361   -0.0006 C.ar      1 <0>        -0.0959
      5 C5          1.2054   -0.7202   -0.0199 C.ar      1 <0>        -0.0534
      6 C6          0.0021   -0.0041    0.0020 C.ar      1 <0>        -0.1209
      7 C7          1.0392   -2.2054   -0.1042 C.3       1 <0>        -0.0357
      8 C8          1.9015   -2.9701    0.8493 C.ar      1 <0>        -0.0879
      9 C9          1.3329   -3.7259    1.8588 C.ar      1 <0>        -0.0870
     10 C10         2.1412   -4.4717    2.6971 C.ar      1 <0>        -0.1166
     11 C11         3.5146   -4.4672    2.5226 C.ar      1 <0>        -0.0244
     12 C12         4.0843   -3.6954    1.5276 C.ar      1 <0>        -0.1218
     13 C13         3.2699   -2.9217    0.7054 C.ar      1 <0>         0.1820
     14 N1          3.8729   -2.0300   -0.1958 N.pl3     1 <0>        -0.6420
     15 C14         3.7701   -0.6242    0.0390 C.3       1 <0>         0.2263
     16 H1          4.0972   -0.4852    1.0695 H         1 <0>         0.0585
     17 C15         4.6907    0.2770   -0.7671 C.3       1 <0>         0.1467
     18 H2          4.1040    0.7943   -1.5262 H         1 <0>         0.1089
     19 C16         5.8057   -0.5067   -1.4517 C.3       1 <0>        -0.1310
     20 C17         5.1332   -1.6150   -2.2798 C.3       1 <0>        -0.1275
     21 C18         4.6202   -2.6590   -1.2922 C.3       1 <0>         0.1357
     22 N2          5.2897    1.2692    0.1289 N.am      1 <0>        -0.7001
     23 C19         5.7177    2.4492   -0.3620 C.2       1 <0>         0.4854
     24 O1          5.6070    2.6895   -1.5456 O.2       1 <0>        -0.4656
     25 C20         6.3338    3.4699    0.5597 C.3       1 <0>         0.4510
     26 F1          6.6967    4.6033   -0.1756 F         1 <0>        -0.1497
     27 F2          5.4065    3.8295    1.5436 F         1 <0>        -0.1653
     28 F3          7.4700    2.9243    1.1668 F         1 <0>        -0.1650
     29 Cl1         4.5226   -5.4321    3.5553 Cl        1 <0>        -0.0671
     30 H3         -0.9559    1.9029    0.0259 H         1 <0>         0.1254
     31 H4          1.1848    3.1436   -0.0049 H         1 <0>         0.1245
     32 H5          3.2965    1.9067    0.0052 H         1 <0>         0.1200
     33 H6         -0.9331   -0.5443    0.0128 H         1 <0>         0.1222
     34 H7         -0.0036   -2.4500    0.0980 H         1 <0>         0.0818
     35 H8          1.2766   -2.5241   -1.1192 H         1 <0>         0.0875
     36 H9          0.2612   -3.7333    1.9921 H         1 <0>         0.1359
     37 H10         1.7004   -5.0583    3.4895 H         1 <0>         0.1354
     38 H11         5.1554   -3.6924    1.3890 H         1 <0>         0.1349
     39 H12         6.3759    0.1526   -2.1062 H         1 <0>         0.0809
     40 H13         6.4633   -0.9487   -0.7032 H         1 <0>         0.0778
     41 H14         4.3010   -1.2010   -2.8492 H         1 <0>         0.0749
     42 H15         5.8592   -2.0672   -2.9555 H         1 <0>         0.0884
     43 H16         5.4671   -3.2069   -0.8792 H         1 <0>         0.0576
     44 H17         3.9664   -3.3560   -1.8165 H         1 <0>         0.0597
     45 H18         5.3782    1.0770    1.0755 H         1 <0>         0.4121
@<TRIPOS>BOND
     1    1    6 ar
     2    1    2 ar
     3    1   30 1
     4    2    3 ar
     5    2   31 1
     6    3    4 ar
     7    3   32 1
     8    4   15 1
     9    4    5 ar
    10    5    6 ar
    11    5    7 1
    12    6   33 1
    13    7    8 1
    14    7   34 1
    15    7   35 1
    16    8   13 ar
    17    8    9 ar
    18    9   10 ar
    19    9   36 1
    20   10   11 ar
    21   10   37 1
    22   11   12 ar
    23   11   29 1
    24   12   13 ar
    25   12   38 1
    26   13   14 1
    27   14   21 1
    28   14   15 1
    29   15   16 1
    30   15   17 1
    31   17   18 1
    32   17   19 1
    33   17   22 1
    34   19   20 1
    35   19   39 1
    36   19   40 1
    37   20   21 1
    38   20   41 1
    39   20   42 1
    40   21   43 1
    41   21   44 1
    42   22   23 am
    43   22   45 1
    44   23   24 2
    45   23   25 1
    46   25   26 1
    47   25   27 1
    48   25   28 1
@<TRIPOS>MOLECULE
CHEMBL1087512
   55    59     0     0     0
SMALL
USER_CHARGES

@<TRIPOS>ATOM
      1 C1          0.1375    1.6338    0.0301 C.3       1 <0>        -0.1528
      2 C2          0.3744    0.1148   -0.0125 C.3       1 <0>        -0.0613
      3 C3         -0.9866   -0.5806   -0.1392 C.3       1 <0>        -0.1094
      4 C4         -1.8908   -0.1309    1.0110 C.3       1 <0>        -0.1744
      5 C5         -1.2047   -0.3911    2.3247 C.2       1 <0>         0.3606
      6 O1         -1.8554   -0.8388    3.2539 O.2       1 <0>        -0.4497
      7 C6          0.2643   -0.1119    2.5255 C.3       1 <0>        -0.1286
      8 C7          1.0655   -0.3900    1.2558 C.3       1 <0>         0.1745
      9 C8          2.4978    0.1179    1.3865 C.3       1 <0>        -0.1081
     10 C9          3.3209   -0.2508    0.1284 C.3       1 <0>        -0.1050
     11 C10         2.6334    0.4417   -1.0168 C.3       1 <0>        -0.0802
     12 H1          2.5625    1.5225   -0.8048 H         1 <0>         0.0816
     13 C11         1.2274   -0.1717   -1.2268 C.3       1 <0>         0.0409
     14 C12         0.8167    0.4531   -2.5390 C.2       1 <0>         0.0558
     15 C13         1.9497    0.6795   -3.2590 C.2       1 <0>        -0.1949
     16 C14         1.5347    1.2526   -4.5251 C.ar      1 <0>        -0.0817
     17 C15         2.2557    1.6805   -5.6447 C.ar      1 <0>        -0.0701
     18 C16         1.5275    2.1810   -6.6954 C.ar      1 <0>        -0.1502
     19 C17         0.1438    2.2681   -6.6594 C.ar      1 <0>        -0.1016
     20 C18        -0.5925    1.8542   -5.5628 C.ar      1 <0>        -0.1306
     21 C19         0.1202    1.3444   -4.4779 C.ar      1 <0>         0.0992
     22 N1         -0.2732    0.8633   -3.2656 N.pl3     1 <0>        -0.5665
     23 H2         -1.1949    0.8189   -2.9652 H         1 <0>         0.4080
     24 C20         3.1753    0.2782   -2.4383 C.3       1 <0>        -0.0373
     25 C21         1.3352   -1.6714   -1.4996 C.3       1 <0>        -0.1599
     26 O2          1.1504   -1.8358    1.1934 O.3       1 <0>        -0.5526
     27 C22         0.7583   -1.1074    3.6075 C.3       1 <0>        -0.1316
     28 C23         0.4701    1.2922    3.0824 C.3       1 <0>        -0.1424
     29 H3          1.0774    2.1422    0.2448 H         1 <0>         0.0670
     30 H4         -0.2450    1.9690   -0.9339 H         1 <0>         0.0610
     31 H5         -0.5879    1.8666    0.8097 H         1 <0>         0.0634
     32 H6         -1.4454   -0.3033   -1.0850 H         1 <0>         0.0716
     33 H7         -0.8683   -1.6603   -0.0886 H         1 <0>         0.0771
     34 H8         -2.1705    0.9104    0.9121 H         1 <0>         0.1073
     35 H9         -2.8146   -0.7307    0.9780 H         1 <0>         0.0917
     36 H10         2.5045    1.2005    1.4789 H         1 <0>         0.0797
     37 H11         2.9810   -0.3337    2.2453 H         1 <0>         0.0802
     38 H12         4.3355    0.1462    0.2467 H         1 <0>         0.0694
     39 H13         3.3683   -1.3212    0.0143 H         1 <0>         0.0847
     40 H14         3.3326    1.6132   -5.6844 H         1 <0>         0.1279
     41 H15         2.0485    2.5208   -7.5785 H         1 <0>         0.1171
     42 H16        -0.3711    2.6698   -7.5188 H         1 <0>         0.1205
     43 H17        -1.6708    1.9238   -5.5426 H         1 <0>         0.1261
     44 H18         3.9967    0.9746   -2.6185 H         1 <0>         0.0671
     45 H19         3.4904   -0.7332   -2.6470 H         1 <0>         0.0803
     46 H20         0.3405   -2.0813   -1.6744 H         1 <0>         0.0504
     47 H21         1.9562   -1.8368   -2.3801 H         1 <0>         0.0598
     48 H22         1.7859   -2.1658   -0.6391 H         1 <0>         0.0983
     49 H23         0.2937   -2.2823    1.2360 H         1 <0>         0.3670
     50 H24         0.4951   -2.1235    3.3136 H         1 <0>         0.0622
     51 H25         1.8407   -1.0271    3.7081 H         1 <0>         0.0673
     52 H26         0.2862   -0.8712    4.5612 H         1 <0>         0.0614
     53 H27         0.0486    1.3504    4.0859 H         1 <0>         0.0663
     54 H28         1.5364    1.5144    3.1227 H         1 <0>         0.0776
     55 H29        -0.0277    2.0157    2.4367 H         1 <0>         0.0660
@<TRIPOS>BOND
     1    1    2 1
     2    1   29 1
     3    1   30 1
     4    1   31 1
     5    2    8 1
     6    2   13 1
     7    2    3 1
     8    3    4 1
     9    3   32 1
    10    3   33 1
    11    4    5 1
    12    4   34 1
    13    4   35 1
    14    5    6 2
    15    5    7 1
    16    7    8 1
    17    7   27 1
    18    7   28 1
    19    8    9 1
    20    8   26 1
    21    9   10 1
    22    9   36 1
    23    9   37 1
    24   10   11 1
    25   10   38 1
    26   10   39 1
    27   11   12 1
    28   11   24 1
    29   11   13 1
    30   13   14 1
    31   13   25 1
    32   14   22 1
    33   14   15 2
    34   15   16 1
    35   15   24 1
    36   16   21 ar
    37   16   17 ar
    38   17   18 ar
    39   17   40 1
    40   18   19 ar
    41   18   41 1
    42   19   20 ar
    43   19   42 1
    44   20   21 ar
    45   20   43 1
    46   21   22 1
    47   22   23 1
    48   24   44 1
    49   24   45 1
    50   25   46 1
    51   25   47 1
    52   25   48 1
    53   26   49 1
    54   27   50 1
    55   27   51 1
    56   27   52 1
    57   28   53 1
    58   28   54 1
    59   28   55 1
@<TRIPOS>MOLECULE
CHEMBL417110
   41    43     0     0     0
SMALL
USER_CHARGES

@<TRIPOS>ATOM
      1 C1         -0.0187    1.5258    0.0104 C.3       1 <0>        -0.1705
      2 C2          0.0021   -0.0041    0.0020 C.3       1 <0>         0.0920
      3 N1          0.6878   -0.4765   -1.2033 N.pl3     1 <0>        -0.4991
      4 C3         -0.0314   -0.7100   -2.3802 C.ar      1 <0>         0.1423
      5 C4         -1.3174   -0.2154   -2.5422 C.ar      1 <0>        -0.1258
      6 C5         -2.0044   -0.4589   -3.7134 C.ar      1 <0>        -0.0670
      7 C6         -1.4073   -1.2008   -4.7315 C.ar      1 <0>        -0.0582
      8 C7         -0.1142   -1.6973   -4.5657 C.ar      1 <0>        -0.0567
      9 C8          0.5664   -1.4516   -3.3955 C.ar      1 <0>        -0.1435
     10 C9          1.9639   -1.9778   -3.1859 C.3       1 <0>         0.1486
     11 O1          2.6619   -1.0958   -2.3019 O.3       1 <0>        -0.2769
     12 C10         2.0205   -0.6858   -1.1917 C.2       1 <0>         0.4916
     13 S1          2.9047   -0.4340    0.2525 S.2       1 <0>        -0.4949
     14 C11         1.8980   -3.3761   -2.5683 C.3       1 <0>        -0.1701
     15 C12         2.6945   -2.0416   -4.5287 C.3       1 <0>        -0.1425
     16 C13        -2.1465   -1.4619   -5.9911 C.ar      1 <0>        -0.0111
     17 C14        -3.4338   -0.9617   -6.1595 C.ar      1 <0>        -0.0745
     18 C15        -4.1233   -1.2100   -7.3455 C.ar      1 <0>         0.0150
     19 C16        -3.5183   -1.9589   -8.3575 C.ar      1 <0>        -0.1063
     20 C17        -2.2391   -2.4532   -8.1831 C.ar      1 <0>         0.1134
     21 C18        -1.5499   -2.2037   -7.0095 C.ar      1 <0>        -0.1202
     22 F1         -1.6578   -3.1775   -9.1643 F         1 <0>        -0.1266
     23 C19        -5.4488   -0.6987   -7.5256 C.1       1 <0>         0.2462
     24 N2         -6.5002   -0.2931   -7.6684 N.1       1 <0>        -0.3920
     25 H1          1.0039    1.9031    0.0027 H         1 <0>         0.0729
     26 H2         -0.5459    1.8868   -0.8726 H         1 <0>         0.0590
     27 H3         -0.5289    1.8773    0.9072 H         1 <0>         0.0840
     28 H4          0.5293   -0.3651    0.8851 H         1 <0>         0.1231
     29 H5         -1.0205   -0.3814    0.0098 H         1 <0>         0.0960
     30 H6         -1.7797    0.3588   -1.7530 H         1 <0>         0.1442
     31 H7         -3.0057   -0.0749   -3.8416 H         1 <0>         0.1426
     32 H8          0.3509   -2.2719   -5.3530 H         1 <0>         0.1442
     33 H9          1.3560   -4.0438   -3.2379 H         1 <0>         0.0864
     34 H10         2.9089   -3.7547   -2.4175 H         1 <0>         0.0843
     35 H11         1.3820   -3.3258   -1.6095 H         1 <0>         0.0607
     36 H12         2.7445   -1.0430   -4.9629 H         1 <0>         0.0753
     37 H13         3.7043   -2.4221   -4.3752 H         1 <0>         0.0831
     38 H14         2.1551   -2.7051   -5.2046 H         1 <0>         0.0886
     39 H15        -3.8975   -0.3835   -5.3739 H         1 <0>         0.1449
     40 H16        -4.0507   -2.1524   -9.2771 H         1 <0>         0.1504
     41 H17        -0.5489   -2.5882   -6.8804 H         1 <0>         0.1471
@<TRIPOS>BOND
     1    1    2 1
     2    1   25 1
     3    1   26 1
     4    1   27 1
     5    2    3 1
     6    2   28 1
     7    2   29 1
     8    3   12 1
     9    3    4 1
    10    4    9 ar
    11    4    5 ar
    12    5    6 ar
    13    5   30 1
    14    6    7 ar
    15    6   31 1
    16    7    8 ar
    17    7   16 1
    18    8    9 ar
    19    8   32 1
    20    9   10 1
    21   10   11 1
    22   10   14 1
    23   10   15 1
    24   11   12 1
    25   12   13 2
    26   14   33 1
    27   14   34 1
    28   14   35 1
    29   15   36 1
    30   15   37 1
    31   15   38 1
    32   16   21 ar
    33   16   17 ar
    34   17   18 ar
    35   17   39 1
    36   18   19 ar
    37   18   23 1
    38   19   20 ar
    39   19   40 1
    40   20   21 ar
    41   20   22 1
    42   21   41 1
    43   23   24 3
@<TRIPOS>MOLECULE
CHEMBL28031
   41    44     0     0     0
SMALL
USER_CHARGES

@<TRIPOS>ATOM
      1 C1         -1.9605    0.5768    0.3860 C.3       1 <0>        -0.1021
      2 C2         -0.8387   -0.4049    0.1647 C.2       1 <0>        -0.1163
      3 C3         -0.7196   -1.0699   -1.0242 C.2       1 <0>        -0.0718
      4 C4          0.3286   -1.9648   -1.1843 C.2       1 <0>        -0.1257
      5 S1          1.1599   -1.8553    0.3918 S.3       1 <0>         0.1597
      6 C5          0.0941   -0.6464    1.1597 C.2       1 <0>        -0.0939
      7 C6          0.1829   -0.0566    2.5107 C.ar      1 <0>        -0.0249
      8 C7          0.0565    1.3237    2.6856 C.ar      1 <0>        -0.0565
      9 C8          0.1397    1.8729    3.9442 C.ar      1 <0>        -0.1204
     10 C9          0.3506    1.0573    5.0570 C.ar      1 <0>         0.1241
     11 C10         0.4754   -0.3174    4.8763 C.ar      1 <0>        -0.1095
     12 C11         0.3884   -0.8759    3.6244 C.ar      1 <0>        -0.0505
     13 C12         0.6921   -0.9019    6.2498 C.3       1 <0>        -0.0111
     14 C13         2.0430   -1.6072    6.3201 C.3       1 <0>        -0.0926
     15 C14         2.0535   -2.7858    5.3430 C.3       1 <0>        -0.1264
     16 C15         0.9330   -3.7612    5.7090 C.3       1 <0>        -0.1235
     17 C16        -0.4171   -3.0469    5.6219 C.3       1 <0>        -0.1268
     18 C17        -0.4348   -1.8690    6.5996 C.3       1 <0>        -0.0923
     19 C18         0.6704    0.2908    7.1748 C.2       1 <0>         0.2666
     20 N1          0.4691    1.3776    6.4084 N.pl3     1 <0>        -0.5900
     21 S2          0.8522    0.2668    8.7632 S.2       1 <0>        -0.3661
     22 C19         0.6584   -2.7701   -2.3215 C.1       1 <0>         0.2893
     23 N2          0.9201   -3.4090   -3.2237 N.1       1 <0>        -0.3891
     24 H1         -1.6120    1.5841    0.1579 H         1 <0>         0.0744
     25 H2         -2.7972    0.3254   -0.2658 H         1 <0>         0.0715
     26 H3         -2.2835    0.5309    1.4260 H         1 <0>         0.0723
     27 H4         -1.4273   -0.9021   -1.8225 H         1 <0>         0.1491
     28 H5         -0.1068    1.9619    1.8298 H         1 <0>         0.1420
     29 H6          0.0417    2.9408    4.0718 H         1 <0>         0.1368
     30 H7          0.4826   -1.9446    3.5004 H         1 <0>         0.1455
     31 H8          2.8335   -0.9061    6.0523 H         1 <0>         0.0662
     32 H9          2.2096   -1.9734    7.3331 H         1 <0>         0.0897
     33 H10         1.8983   -2.4182    4.3286 H         1 <0>         0.0680
     34 H11         3.0141   -3.2975    5.4012 H         1 <0>         0.0734
     35 H12         0.9438   -4.6029    5.0165 H         1 <0>         0.0678
     36 H13         1.0861   -4.1254    6.7249 H         1 <0>         0.0694
     37 H14        -0.5688   -2.6791    4.6071 H         1 <0>         0.0691
     38 H15        -1.2144   -3.7443    5.8787 H         1 <0>         0.0731
     39 H16        -0.2948   -2.2379    7.6157 H         1 <0>         0.0895
     40 H17        -1.3920   -1.3525    6.5291 H         1 <0>         0.0661
     41 H18         0.4128    2.2812    6.7565 H         1 <0>         0.4260
@<TRIPOS>BOND
     1    1    2 1
     2    1   24 1
     3    1   25 1
     4    1   26 1
     5    2    6 2
     6    2    3 1
     7    3    4 2
     8    3   27 1
     9    4    5 1
    10    4   22 1
    11    5    6 1
    12    6    7 1
    13    7   12 ar
    14    7    8 ar
    15    8    9 ar
    16    8   28 1
    17    9   10 ar
    18    9   29 1
    19   10   20 1
    20   10   11 ar
    21   11   12 ar
    22   11   13 1
    23   12   30 1
    24   13   18 1
    25   13   14 1
    26   13   19 1
    27   14   15 1
    28   14   31 1
    29   14   32 1
    30   15   16 1
    31   15   33 1
    32   15   34 1
    33   16   17 1
    34   16   35 1
    35   16   36 1
    36   17   18 1
    37   17   37 1
    38   17   38 1
    39   18   39 1
    40   18   40 1
    41   19   20 1
    42   19   21 2
    43   20   41 1
    44   22   23 3
@<TRIPOS>MOLECULE
CHEMBL489788
   43    46     0     0     0
SMALL
USER_CHARGES

@<TRIPOS>ATOM
      1 C1         -1.3942    2.3574   -0.0369 C.3       1 <0>        -0.1908
      2 C2         -1.0201    0.8770    0.0601 C.3       1 <0>         0.2554
      3 C3         -2.2674    0.0643   -0.0999 C.ar      1 <0>        -0.1362
      4 C4         -2.5534   -0.3610   -1.3922 C.ar      1 <0>        -0.0452
      5 C5         -3.6828   -1.1252   -1.6657 C.ar      1 <0>        -0.0446
      6 C6         -4.5421   -1.4689   -0.6187 C.ar      1 <0>        -0.0828
      7 C7         -4.2585   -1.0468    0.6535 C.ar      1 <0>        -0.1554
      8 C8         -3.1184   -0.2719    0.9350 C.ar      1 <0>         0.1942
      9 N1         -2.9672    0.0866    2.2553 N.am      1 <0>        -0.6463
     10 C9         -2.0185    0.6466    2.9572 C.2       1 <0>         0.4969
     11 O1         -2.1423    0.6195    4.1634 O.2       1 <0>        -0.5248
     12 C10        -0.7990    1.3150    2.4222 C.3       1 <0>         0.0497
     13 O2         -0.3296    0.6757    1.2572 O.3       1 <0>        -0.3462
     14 C11        -3.9706   -1.5674   -3.0452 C.2       1 <0>         0.0967
     15 C12        -3.4654   -1.0017   -4.1958 C.2       1 <0>        -0.1769
     16 C13        -3.9813   -1.7126   -5.2786 C.2       1 <0>        -0.1063
     17 C14        -4.7967   -2.7052   -4.7721 C.2       1 <0>         0.0555
     18 N2         -4.7786   -2.6112   -3.3987 N.pl3     1 <0>        -0.4152
     19 C15        -5.5065   -3.4815   -2.4719 C.3       1 <0>         0.0551
     20 C16        -5.5278   -3.6675   -5.5404 C.1       1 <0>         0.2768
     21 N3         -6.1078   -4.4308   -6.1498 N.1       1 <0>        -0.4035
     22 C17        -0.0941    0.5482   -1.0825 C.2       1 <0>        -0.0195
     23 C18         0.9083   -0.3481   -1.0498 C.2       1 <0>        -0.1665
     24 C19         1.5115   -0.3349   -2.3284 C.2       1 <0>        -0.2131
     25 C20         0.8416    0.5687   -3.0660 C.2       1 <0>        -0.0307
     26 O3         -0.1335    1.0963   -2.3080 O.3       1 <0>        -0.1702
     27 H1         -0.4879    2.9628   -0.0223 H         1 <0>         0.0808
     28 H2         -1.9350    2.5353   -0.9664 H         1 <0>         0.0858
     29 H3         -2.0261    2.6286    0.8088 H         1 <0>         0.0690
     30 H4         -1.8864   -0.0935   -2.1983 H         1 <0>         0.1426
     31 H5         -5.4231   -2.0632   -0.8110 H         1 <0>         0.1371
     32 H6         -4.9258   -1.3151    1.4592 H         1 <0>         0.1359
     33 H7         -3.7483   -0.1262    2.7896 H         1 <0>         0.4025
     34 H8         -1.0352    2.3531    2.1882 H         1 <0>         0.1020
     35 H9         -0.0173    1.2910    3.1815 H         1 <0>         0.1489
     36 H10        -2.7914   -0.1595   -4.2491 H         1 <0>         0.1517
     37 H11        -3.7803   -1.5215   -6.3224 H         1 <0>         0.1545
     38 H12        -6.4505   -3.0109   -2.1971 H         1 <0>         0.0861
     39 H13        -5.7045   -4.4394   -2.9527 H         1 <0>         0.0887
     40 H14        -4.9061   -3.6416   -1.5764 H         1 <0>         0.0979
     41 H15         1.1974   -0.9600   -0.2081 H         1 <0>         0.1511
     42 H16         2.3496   -0.9349   -2.6509 H         1 <0>         0.1512
     43 H17         1.0499    0.8238   -4.0946 H         1 <0>         0.2081
@<TRIPOS>BOND
     1    1    2 1
     2    1   27 1
     3    1   28 1
     4    1   29 1
     5    2   13 1
     6    2    3 1
     7    2   22 1
     8    3    8 ar
     9    3    4 ar
    10    4    5 ar
    11    4   30 1
    12    5    6 ar
    13    5   14 1
    14    6    7 ar
    15    6   31 1
    16    7    8 ar
    17    7   32 1
    18    8    9 1
    19    9   10 am
    20    9   33 1
    21   10   11 2
    22   10   12 1
    23   12   13 1
    24   12   34 1
    25   12   35 1
    26   14   18 1
    27   14   15 2
    28   15   16 1
    29   15   36 1
    30   16   17 2
    31   16   37 1
    32   17   18 1
    33   17   20 1
    34   18   19 1
    35   19   38 1
    36   19   39 1
    37   19   40 1
    38   20   21 3
    39   22   26 1
    40   22   23 2
    41   23   24 1
    42   23   41 1
    43   24   25 2
    44   24   42 1
    45   25   26 1
    46   25   43 1
@<TRIPOS>MOLECULE
CHEMBL489788__1
   43    46     0     0     0
SMALL
USER_CHARGES

@<TRIPOS>ATOM
      1 C1         -0.3595    1.3887   -0.0851 C.3       1 <0>        -0.1460
      2 C2         -0.2506   -0.1370   -0.1228 C.3       1 <0>         0.2570
      3 C3          0.2573   -0.5399   -1.4725 C.ar      1 <0>        -0.1378
      4 C4          0.0329    0.3675   -2.5015 C.ar      1 <0>        -0.0511
      5 C5          0.4605    0.1058   -3.7988 C.ar      1 <0>        -0.0465
      6 C6          1.1282   -1.0921   -4.0668 C.ar      1 <0>        -0.0794
      7 C7          1.3471   -1.9848   -3.0508 C.ar      1 <0>        -0.1567
      8 C8          0.9139   -1.7261   -1.7374 C.ar      1 <0>         0.2017
      9 N1          1.1944   -2.7167   -0.8240 N.am      1 <0>        -0.6461
     10 C9          1.1156   -2.8237    0.4755 C.2       1 <0>         0.4994
     11 O1          1.6571   -3.7853    0.9787 O.2       1 <0>        -0.5252
     12 C10         0.4265   -1.8806    1.4007 C.3       1 <0>         0.0486
     13 O2          0.5365   -0.5482    0.9550 O.3       1 <0>        -0.3447
     14 C11         0.2117    1.0813   -4.8795 C.2       1 <0>         0.0964
     15 C12        -0.7451    2.0731   -4.8667 C.2       1 <0>        -0.1785
     16 C13        -0.6487    2.7694   -6.0707 C.2       1 <0>        -0.1062
     17 C14         0.3685    2.1911   -6.8038 C.2       1 <0>         0.0562
     18 N2          0.8947    1.1585   -6.0605 N.pl3     1 <0>        -0.4151
     19 C15         1.9988    0.2865   -6.4688 C.3       1 <0>         0.0550
     20 C16         0.8039    2.5979   -8.1059 C.1       1 <0>         0.2760
     21 N3          1.1493    2.9206   -9.1389 N.1       1 <0>        -0.4029
     22 C17        -1.6321   -0.7133    0.0516 C.2       1 <0>        -0.0660
     23 C18        -2.4540   -1.1003   -0.9404 C.2       1 <0>        -0.1783
     24 C19        -3.6374   -1.5754   -0.3299 C.2       1 <0>        -0.2138
     25 C20        -3.4679   -1.4503    0.9986 C.2       1 <0>        -0.0323
     26 O3         -2.2492   -0.9329    1.2241 O.3       1 <0>        -0.1668
     27 H1          0.6102    1.8281   -0.3188 H         1 <0>         0.0820
     28 H2         -1.0944    1.7187   -0.8193 H         1 <0>         0.0861
     29 H3         -0.6720    1.7061    0.9098 H         1 <0>         0.0789
     30 H4         -0.4831    1.2923   -2.2898 H         1 <0>         0.1482
     31 H5          1.4695   -1.3125   -5.0675 H         1 <0>         0.1370
     32 H6          1.8636   -2.9093   -3.2632 H         1 <0>         0.1356
     33 H7          1.5287   -3.5248   -1.2435 H         1 <0>         0.4017
     34 H8         -0.6279   -2.1494    1.4632 H         1 <0>         0.0994
     35 H9          0.8734   -1.9631    2.3915 H         1 <0>         0.1453
     36 H10        -1.4435    2.2746   -4.0679 H         1 <0>         0.1527
     37 H11        -1.2584    3.6075   -6.3746 H         1 <0>         0.1546
     38 H12         1.5971   -0.6278   -6.9057 H         1 <0>         0.0859
     39 H13         2.6148    0.8013   -7.2060 H         1 <0>         0.0888
     40 H14         2.6057    0.0371   -5.5985 H         1 <0>         0.0981
     41 H15        -2.2494   -1.0561   -1.9999 H         1 <0>         0.1503
     42 H16        -4.5102   -1.9639   -0.8336 H         1 <0>         0.1517
     43 H17        -4.1881   -1.7233    1.7557 H         1 <0>         0.2066
@<TRIPOS>BOND
     1    1    2 1
     2    1   27 1
     3    1   28 1
     4    1   29 1
     5    2   13 1
     6    2    3 1
     7    2   22 1
     8    3    8 ar
     9    3    4 ar
    10    4    5 ar
    11    4   30 1
    12    5    6 ar
    13    5   14 1
    14    6    7 ar
    15    6   31 1
    16    7    8 ar
    17    7   32 1
    18    8    9 1
    19    9   10 am
    20    9   33 1
    21   10   11 2
    22   10   12 1
    23   12   13 1
    24   12   34 1
    25   12   35 1
    26   14   18 1
    27   14   15 2
    28   15   16 1
    29   15   36 1
    30   16   17 2
    31   16   37 1
    32   17   18 1
    33   17   20 1
    34   18   19 1
    35   19   38 1
    36   19   39 1
    37   19   40 1
    38   20   21 3
    39   22   26 1
    40   22   23 2
    41   23   24 1
    42   23   41 1
    43   24   25 2
    44   24   42 1
    45   25   26 1
    46   25   43 1
@<TRIPOS>MOLECULE
CHEMBL261650
   74    80     0     0     0
SMALL
USER_CHARGES

@<TRIPOS>ATOM
      1 C1          1.7869    1.4931    1.1259 C.3       1 <0>        -0.1483
      2 C2          1.4284    0.0382    0.8165 C.3       1 <0>        -0.0742
      3 H1          2.1341   -0.3755    0.0960 H         1 <0>         0.0739
      4 C3         -0.0126   -0.0465    0.2575 C.3       1 <0>        -0.1095
      5 C4         -0.8004   -0.8589    1.2831 C.3       1 <0>        -0.0784
      6 H2         -1.2157   -0.1957    2.0419 H         1 <0>         0.0773
      7 C5         -1.8982   -1.7438    0.7124 C.3       1 <0>        -0.0458
      8 H3         -1.4679   -2.3912   -0.0517 H         1 <0>         0.0966
      9 C6         -2.9731   -0.8785    0.0767 C.3       1 <0>        -0.1114
     10 C7         -4.2537   -1.6724   -0.1791 C.3       1 <0>        -0.0965
     11 C8         -4.7176   -2.2370    1.1402 C.2       1 <0>         0.0255
     12 C9         -6.0207   -2.2182    1.4980 C.2       1 <0>        -0.2476
     13 C10        -6.4203   -2.6609    2.7707 C.2       1 <0>         0.3868
     14 O1         -7.6035   -2.7823    3.0170 O.2       1 <0>        -0.4696
     15 C11        -5.4053   -2.9876    3.8332 C.3       1 <0>        -0.1660
     16 C12        -4.1842   -3.6584    3.1979 C.3       1 <0>        -0.0818
     17 C13        -3.7161   -2.8191    2.0327 C.2       1 <0>        -0.1255
     18 C14        -2.4257   -2.5987    1.8366 C.2       1 <0>        -0.0476
     19 C15        -1.4647   -3.2946    2.7798 C.3       1 <0>        -0.0307
     20 H4         -2.0043   -3.6100    3.6728 H         1 <0>         0.1065
     21 C16        -0.3198   -2.3546    3.1871 C.3       1 <0>        -0.1013
     22 C17         0.2762   -1.7789    1.9172 C.3       1 <0>        -0.0489
     23 C18         1.4440   -0.8031    2.1206 C.3       1 <0>        -0.1199
     24 H5          1.2691   -0.1694    2.9900 H         1 <0>         0.0987
     25 C19         2.7459   -1.5498    2.2572 C.2       1 <0>         0.3902
     26 O2          2.8959   -2.6093    1.6975 O.2       1 <0>        -0.4370
     27 C20         3.8606   -0.9742    3.0922 C.3       1 <0>        -0.2240
     28 C21         5.2778   -1.0380    2.5192 C.3       1 <0>        -0.1496
     29 C22         4.8801   -1.9519    3.6801 C.3       1 <0>        -0.1517
     30 C23         0.6544   -2.9093    0.9579 C.3       1 <0>        -0.1518
     31 C24        -0.8890   -4.5072    2.0948 C.ar      1 <0>        -0.0377
     32 C25         0.2182   -5.1403    2.6302 C.ar      1 <0>        -0.1203
     33 C26         0.7496   -6.2512    2.0070 C.ar      1 <0>        -0.0688
     34 C27         0.1686   -6.7348    0.8363 C.ar      1 <0>        -0.0563
     35 C28        -0.9468   -6.0930    0.3014 C.ar      1 <0>        -0.0957
     36 C29        -1.4732   -4.9863    0.9361 C.ar      1 <0>        -0.1277
     37 C30         0.7356   -7.9282    0.1617 C.ar      1 <0>         0.1714
     38 C31         0.1516   -8.4014   -1.0116 C.ar      1 <0>        -0.1663
     39 C32         0.6917   -9.5157   -1.6296 C.ar      1 <0>        -0.0716
     40 C33         1.7996  -10.1211   -1.0533 C.ar      1 <0>        -0.1779
     41 C34         2.3282   -9.5984    0.1123 C.ar      1 <0>         0.1059
     42 N1          1.7977   -8.5328    0.6774 N.ar      1 <0>        -0.4792
     43 H6          2.7880    1.5373    1.5548 H         1 <0>         0.0567
     44 H7          1.7595    2.0775    0.2063 H         1 <0>         0.0590
     45 H8          1.0686    1.9009    1.8372 H         1 <0>         0.0588
     46 H9         -0.4385    0.9520    0.1595 H         1 <0>         0.0709
     47 H10        -0.0137   -0.5541   -0.7071 H         1 <0>         0.0684
     48 H11        -3.1981   -0.0444    0.7414 H         1 <0>         0.0687
     49 H12        -2.6015   -0.4873   -0.8704 H         1 <0>         0.0772
     50 H13        -5.0201   -1.0147   -0.5891 H         1 <0>         0.0856
     51 H14        -4.0511   -2.4845   -0.8774 H         1 <0>         0.0884
     52 H15        -6.7621   -1.8592    0.7995 H         1 <0>         0.1347
     53 H16        -5.0953   -2.0696    4.3324 H         1 <0>         0.0990
     54 H17        -5.8504   -3.6631    4.5638 H         1 <0>         0.0949
     55 H18        -3.3855   -3.7365    3.9356 H         1 <0>         0.0934
     56 H19        -4.4564   -4.6532    2.8453 H         1 <0>         0.0821
     57 H20        -0.7064   -1.5453    3.8066 H         1 <0>         0.0719
     58 H21         0.4408   -2.9114    3.7345 H         1 <0>         0.0727
     59 H22         3.5978   -0.1013    3.6898 H         1 <0>         0.1213
     60 H23         5.4040   -1.4963    1.5384 H         1 <0>         0.0999
     61 H24         5.9477   -0.2069    2.7397 H         1 <0>         0.1035
     62 H25         5.2883   -1.7220    4.6643 H         1 <0>         0.1028
     63 H26         4.7446   -3.0114    3.4629 H         1 <0>         0.1038
     64 H27         1.2852   -2.5143    0.1616 H         1 <0>         0.0473
     65 H28         1.1976   -3.6815    1.5025 H         1 <0>         0.0843
     66 H29        -0.2503   -3.3374    0.5262 H         1 <0>         0.0686
     67 H30         0.6678   -4.7645    3.5373 H         1 <0>         0.1238
     68 H31         1.6143   -6.7446    2.4257 H         1 <0>         0.1327
     69 H32        -1.4010   -6.4635   -0.6057 H         1 <0>         0.1235
     70 H33        -2.3404   -4.4909    0.5250 H         1 <0>         0.1259
     71 H34        -0.7107   -7.9057   -1.4326 H         1 <0>         0.1361
     72 H35         0.2604   -9.9056   -2.5397 H         1 <0>         0.1361
     73 H36         2.2443  -10.9925   -1.5108 H         1 <0>         0.1360
     74 H37         3.1903  -10.0671    0.5634 H         1 <0>         0.1579
@<TRIPOS>BOND
     1    1    2 1
     2    1   43 1
     3    1   44 1
     4    1   45 1
     5    2    3 1
     6    2   23 1
     7    2    4 1
     8    4    5 1
     9    4   46 1
    10    4   47 1
    11    5    6 1
    12    5   22 1
    13    5    7 1
    14    7    8 1
    15    7   18 1
    16    7    9 1
    17    9   10 1
    18    9   48 1
    19    9   49 1
    20   10   11 1
    21   10   50 1
    22   10   51 1
    23   11   17 1
    24   11   12 2
    25   12   13 1
    26   12   52 1
    27   13   14 2
    28   13   15 1
    29   15   16 1
    30   15   53 1
    31   15   54 1
    32   16   17 1
    33   16   55 1
    34   16   56 1
    35   17   18 2
    36   18   19 1
    37   19   20 1
    38   19   21 1
    39   19   31 1
    40   21   22 1
    41   21   57 1
    42   21   58 1
    43   22   23 1
    44   22   30 1
    45   23   24 1
    46   23   25 1
    47   25   26 2
    48   25   27 1
    49   27   29 1
    50   27   28 1
    51   27   59 1
    52   28   29 1
    53   28   60 1
    54   28   61 1
    55   29   62 1
    56   29   63 1
    57   30   64 1
    58   30   65 1
    59   30   66 1
    60   31   36 ar
    61   31   32 ar
    62   32   33 ar
    63   32   67 1
    64   33   34 ar
    65   33   68 1
    66   34   35 ar
    67   34   37 1
    68   35   36 ar
    69   35   69 1
    70   36   70 1
    71   37   42 ar
    72   37   38 ar
    73   38   39 ar
    74   38   71 1
    75   39   40 ar
    76   39   72 1
    77   40   41 ar
    78   40   73 1
    79   41   42 ar
    80   41   74 1
@<TRIPOS>MOLECULE
CHEMBL270976
   41    44     0     0     0
SMALL
USER_CHARGES

@<TRIPOS>ATOM
      1 C1         -0.0167    1.3769    0.0096 C.ar      1 <0>        -0.1117
      2 C2          1.1659    2.0893    0.0021 C.ar      1 <0>        -0.0682
      3 C3          2.3893    1.4155   -0.0136 C.ar      1 <0>        -0.0202
      4 C4          2.4131    0.0212   -0.0214 C.ar      1 <0>        -0.0637
      5 C5          1.2172   -0.6888   -0.0133 C.ar      1 <0>        -0.0406
      6 C6          0.0021   -0.0041    0.0020 C.ar      1 <0>        -0.0824
      7 C7          1.2339   -2.1723   -0.0215 C.ar      1 <0>        -0.0549
      8 C8          2.4465   -2.8603   -0.0314 C.ar      1 <0>        -0.0776
      9 C9          2.4630   -4.2368   -0.0390 C.ar      1 <0>        -0.1173
     10 C10         1.2673   -4.9554   -0.0373 C.ar      1 <0>         0.1131
     11 C11         0.0609   -4.2620   -0.0274 C.ar      1 <0>        -0.1070
     12 C12         0.0365   -2.8879   -0.0134 C.ar      1 <0>        -0.0611
     13 C13        -1.0241   -5.3097   -0.0287 C.3       1 <0>        -0.0111
     14 C14        -1.8902   -5.1762   -1.2775 C.3       1 <0>        -0.0924
     15 C15        -2.6002   -3.8199   -1.2622 C.3       1 <0>        -0.1261
     16 C16        -3.4692   -3.7140   -0.0073 C.3       1 <0>        -0.1234
     17 C17        -2.5886   -3.8354    1.2379 C.3       1 <0>        -0.1264
     18 C18        -1.8785   -5.1916    1.2298 C.3       1 <0>        -0.0924
     19 C19        -0.2800   -6.6230   -0.0402 C.2       1 <0>         0.2676
     20 S1         -0.9288   -8.0845   -0.0467 S.2       1 <0>        -0.3732
     21 N1          1.0326   -6.3299   -0.0445 N.pl3     1 <0>        -0.5894
     22 C20         3.6159    2.1545   -0.0223 C.1       1 <0>         0.2485
     23 N2          4.5889    2.7408   -0.0292 N.1       1 <0>        -0.4072
     24 H1         -0.9604    1.9018    0.0260 H         1 <0>         0.1392
     25 H2          1.1450    3.1690    0.0082 H         1 <0>         0.1360
     26 H3          3.3561   -0.5050   -0.0339 H         1 <0>         0.1363
     27 H4         -0.9267   -0.5553    0.0079 H         1 <0>         0.1333
     28 H5          3.3765   -2.3111   -0.0336 H         1 <0>         0.1385
     29 H6          3.4062   -4.7629   -0.0467 H         1 <0>         0.1333
     30 H7         -0.9075   -2.3633   -0.0011 H         1 <0>         0.1453
     31 H8         -1.2616   -5.2474   -2.1651 H         1 <0>         0.0657
     32 H9         -2.6321   -5.9747   -1.2924 H         1 <0>         0.0890
     33 H10        -1.8583   -3.0214   -1.2589 H         1 <0>         0.0691
     34 H11        -3.2286   -3.7287   -2.1481 H         1 <0>         0.0728
     35 H12        -3.9788   -2.7505    0.0010 H         1 <0>         0.0675
     36 H13        -4.2082   -4.5152   -0.0088 H         1 <0>         0.0691
     37 H14        -1.8468   -3.0368    1.2377 H         1 <0>         0.0692
     38 H15        -3.2088   -3.7553    2.1307 H         1 <0>         0.0728
     39 H16        -2.6201   -5.9903    1.2418 H         1 <0>         0.0890
     40 H17        -1.2415   -5.2736    2.1105 H         1 <0>         0.0657
     41 H18         1.7357   -6.9982   -0.0518 H         1 <0>         0.4253
@<TRIPOS>BOND
     1    1    6 ar
     2    1    2 ar
     3    1   24 1
     4    2    3 ar
     5    2   25 1
     6    3    4 ar
     7    3   22 1
     8    4    5 ar
     9    4   26 1
    10    5    6 ar
    11    5    7 1
    12    6   27 1
    13    7   12 ar
    14    7    8 ar
    15    8    9 ar
    16    8   28 1
    17    9   10 ar
    18    9   29 1
    19   10   21 1
    20   10   11 ar
    21   11   12 ar
    22   11   13 1
    23   12   30 1
    24   13   18 1
    25   13   14 1
    26   13   19 1
    27   14   15 1
    28   14   31 1
    29   14   32 1
    30   15   16 1
    31   15   33 1
    32   15   34 1
    33   16   17 1
    34   16   35 1
    35   16   36 1
    36   17   18 1
    37   17   37 1
    38   17   38 1
    39   18   39 1
    40   18   40 1
    41   19   20 2
    42   19   21 1
    43   21   41 1
    44   22   23 3
@<TRIPOS>MOLECULE
CHEMBL373497
   55    58     0     0     0
SMALL
USER_CHARGES

@<TRIPOS>ATOM
      1 C1          0.8190   -0.1991    0.9676 C.3       1 <0>        -0.1552
      2 C2         -0.2014   -0.4401   -0.1467 C.3       1 <0>        -0.0171
      3 C3          0.1592   -1.7222   -0.8999 C.3       1 <0>        -0.1354
      4 C4         -1.5978   -0.5821    0.4624 C.3       1 <0>        -0.1512
      5 C5         -1.7228    0.3451    1.6730 C.3       1 <0>         0.0784
      6 C6         -3.0740    0.1163    2.3533 C.3       1 <0>         0.0628
      7 N1         -3.2437    1.0842    3.4398 N.pl3     1 <0>        -0.4992
      8 C7         -2.6746    0.8329    4.6435 C.2       1 <0>         0.1844
      9 C8         -2.7875    1.6773    5.6897 C.2       1 <0>        -0.3121
     10 C9         -3.5222    2.8787    5.5558 C.2       1 <0>         0.4175
     11 O1         -3.6361    3.6555    6.4897 O.2       1 <0>        -0.4974
     12 C10        -4.1449    3.1609    4.2505 C.ar      1 <0>        -0.1966
     13 C11        -3.9730    2.2295    3.2112 C.ar      1 <0>         0.2068
     14 C12        -4.5494    2.4801    1.9695 C.ar      1 <0>        -0.1909
     15 C13        -5.2737    3.6360    1.7739 C.ar      1 <0>        -0.0503
     16 C14        -5.4348    4.5538    2.8022 C.ar      1 <0>        -0.1613
     17 C15        -4.8865    4.3216    4.0331 C.ar      1 <0>        -0.0280
     18 C16        -1.6235    1.8009    1.2128 C.3       1 <0>         0.4641
     19 F1         -2.5960    2.0493    0.2382 F         1 <0>        -0.1683
     20 F2         -1.8301    2.6504    2.3050 F         1 <0>        -0.1675
     21 F3         -0.3535    2.0342    0.6743 F         1 <0>        -0.1475
     22 O2         -0.6702    0.0652    2.5981 O.3       1 <0>        -0.5190
     23 C17        -0.1863    0.7250   -1.1023 C.ar      1 <0>        -0.0766
     24 C18        -1.3569    1.1319   -1.7087 C.ar      1 <0>        -0.1081
     25 C19        -1.3542    2.1995   -2.5870 C.ar      1 <0>        -0.1366
     26 C20        -0.1696    2.8602   -2.8617 C.ar      1 <0>        -0.0793
     27 C21         1.0003    2.4540   -2.2599 C.ar      1 <0>        -0.1699
     28 C22         1.0080    1.3907   -1.3657 C.ar      1 <0>         0.1182
     29 O3          2.2563    1.1751   -0.8671 O.3       1 <0>        -0.2923
     30 C23         3.2243    1.7973   -1.7290 C.3       1 <0>         0.0455
     31 C24         2.4270    2.9573   -2.3641 C.3       1 <0>        -0.1114
     32 H1          1.8218   -0.1686    0.5415 H         1 <0>         0.0620
     33 H2          0.6037    0.7500    1.4583 H         1 <0>         0.0970
     34 H3          0.7584   -1.0071    1.6967 H         1 <0>         0.0527
     35 H4          0.0624   -2.5766   -0.2300 H         1 <0>         0.0599
     36 H5         -0.5144   -1.8471   -1.7477 H         1 <0>         0.0560
     37 H6          1.1863   -1.6562   -1.2586 H         1 <0>         0.0612
     38 H7         -2.3477   -0.3120   -0.2811 H         1 <0>         0.0978
     39 H8         -1.7536   -1.6139    0.7774 H         1 <0>         0.0986
     40 H9         -3.8741    0.2445    1.6242 H         1 <0>         0.1180
     41 H10        -3.1101   -0.8949    2.7585 H         1 <0>         0.1193
     42 H11        -2.1092   -0.0784    4.7704 H         1 <0>         0.1586
     43 H12        -2.3164    1.4354    6.6310 H         1 <0>         0.1501
     44 H13        -4.4293    1.7721    1.1629 H         1 <0>         0.1349
     45 H14        -5.7203    3.8298    0.8098 H         1 <0>         0.1313
     46 H15        -6.0054    5.4548    2.6313 H         1 <0>         0.1302
     47 H16        -5.0164    5.0397    4.8293 H         1 <0>         0.1378
     48 H17        -0.6714   -0.8422    2.9323 H         1 <0>         0.3891
     49 H18        -2.2802    0.6134   -1.4964 H         1 <0>         0.1315
     50 H19        -2.2733    2.5166   -3.0574 H         1 <0>         0.1261
     51 H20        -0.1629    3.6943   -3.5477 H         1 <0>         0.1220
     52 H21         4.0694    2.1735   -1.1524 H         1 <0>         0.1057
     53 H22         3.5595    1.1020   -2.4986 H         1 <0>         0.0745
     54 H23         2.7107    3.1110   -3.4052 H         1 <0>         0.0908
     55 H24         2.5606    3.8719   -1.7863 H         1 <0>         0.0887
@<TRIPOS>BOND
     1    1    2 1
     2    1   32 1
     3    1   33 1
     4    1   34 1
     5    2    3 1
     6    2    4 1
     7    2   23 1
     8    3   35 1
     9    3   36 1
    10    3   37 1
    11    4    5 1
    12    4   38 1
    13    4   39 1
    14    5    6 1
    15    5   18 1
    16    5   22 1
    17    6    7 1
    18    6   40 1
    19    6   41 1
    20    7   13 1
    21    7    8 1
    22    8    9 2
    23    8   42 1
    24    9   10 1
    25    9   43 1
    26   10   11 2
    27   10   12 1
    28   12   17 ar
    29   12   13 ar
    30   13   14 ar
    31   14   15 ar
    32   14   44 1
    33   15   16 ar
    34   15   45 1
    35   16   17 ar
    36   16   46 1
    37   17   47 1
    38   18   19 1
    39   18   20 1
    40   18   21 1
    41   22   48 1
    42   23   28 ar
    43   23   24 ar
    44   24   25 ar
    45   24   49 1
    46   25   26 ar
    47   25   50 1
    48   26   27 ar
    49   26   51 1
    50   27   31 1
    51   27   28 ar
    52   28   29 1
    53   29   30 1
    54   30   31 1
    55   30   52 1
    56   30   53 1
    57   31   54 1
    58   31   55 1
@<TRIPOS>MOLECULE
CHEMBL373497__1
   55    58     0     0     0
SMALL
USER_CHARGES

@<TRIPOS>ATOM
      1 C1          0.1730    0.5198   -1.5691 C.3       1 <0>        -0.1374
      2 C2         -0.0920    0.6172   -0.0654 C.3       1 <0>        -0.0158
      3 C3         -0.1049    2.0879    0.3560 C.3       1 <0>        -0.1563
      4 C4         -1.4467   -0.0173    0.2558 C.3       1 <0>        -0.1545
      5 C5         -2.0437    0.6545    1.4941 C.3       1 <0>         0.0782
      6 C6         -3.4421    0.0914    1.7555 C.3       1 <0>         0.0624
      7 N1         -4.0137    0.7346    2.9412 N.pl3     1 <0>        -0.4985
      8 C7         -3.7991    0.1834    4.1602 C.2       1 <0>         0.1794
      9 C8         -4.2929    0.7192    5.2957 C.2       1 <0>        -0.3110
     10 C9         -5.0685    1.9010    5.2437 C.2       1 <0>         0.4180
     11 O1         -5.5240    2.4012    6.2590 O.2       1 <0>        -0.4960
     12 C10        -5.3075    2.5081    3.9226 C.ar      1 <0>        -0.1963
     13 C11        -4.7511    1.8876    2.7899 C.ar      1 <0>         0.2083
     14 C12        -4.9615    2.4480    1.5337 C.ar      1 <0>        -0.1787
     15 C13        -5.7048    3.6025    1.4169 C.ar      1 <0>        -0.0530
     16 C14        -6.2464    4.2130    2.5393 C.ar      1 <0>        -0.1601
     17 C15        -6.0613    3.6726    3.7817 C.ar      1 <0>        -0.0263
     18 C16        -1.1489    0.3801    2.7045 C.3       1 <0>         0.4607
     19 F1          0.1463    0.8381    2.4403 F         1 <0>        -0.1418
     20 F2         -1.6602    1.0469    3.8230 F         1 <0>        -0.1651
     21 F3         -1.1147   -0.9955    2.9568 F         1 <0>        -0.1718
     22 O2         -2.1309    2.0640    1.2759 O.3       1 <0>        -0.5142
     23 C17         0.9940   -0.1107    0.6842 C.ar      1 <0>        -0.0638
     24 C18         0.6959   -1.2672    1.3750 C.ar      1 <0>        -0.1291
     25 C19         1.6845   -1.9427    2.0661 C.ar      1 <0>        -0.1334
     26 C20         2.9788   -1.4529    2.0676 C.ar      1 <0>        -0.0826
     27 C21         3.2780   -0.2973    1.3812 C.ar      1 <0>        -0.1655
     28 C22         2.2958    0.3833    0.6725 C.ar      1 <0>         0.1070
     29 O3          2.8089    1.4778    0.0464 O.3       1 <0>        -0.2979
     30 C23         4.0617    1.8293    0.6580 C.3       1 <0>         0.0500
     31 C24         4.5695    0.4783    1.2072 C.3       1 <0>        -0.1120
     32 H1          1.0950    1.0488   -1.8106 H         1 <0>         0.0671
     33 H2          0.2700   -0.5279   -1.8539 H         1 <0>         0.0549
     34 H3         -0.6571    0.9691   -2.1142 H         1 <0>         0.0589
     35 H4         -0.9139    2.6063   -0.1586 H         1 <0>         0.0574
     36 H5         -0.2570    2.1559    1.4332 H         1 <0>         0.0944
     37 H6          0.8471    2.5494    0.0937 H         1 <0>         0.0542
     38 H7         -2.1204    0.1165   -0.5905 H         1 <0>         0.0996
     39 H8         -1.3128   -1.0817    0.4489 H         1 <0>         0.1003
     40 H9         -4.0795    0.2869    0.8932 H         1 <0>         0.1220
     41 H10        -3.3756   -0.9838    1.9219 H         1 <0>         0.1169
     42 H11        -3.2104   -0.7197    4.2253 H         1 <0>         0.1548
     43 H12        -4.0960    0.2448    6.2457 H         1 <0>         0.1505
     44 H13        -4.5438    1.9805    0.6543 H         1 <0>         0.1258
     45 H14        -5.8673    4.0370    0.4416 H         1 <0>         0.1320
     46 H15        -6.8261    5.1176    2.4297 H         1 <0>         0.1302
     47 H16        -6.4863    4.1524    4.6510 H         1 <0>         0.1379
     48 H17        -2.6838    2.3119    0.5223 H         1 <0>         0.3875
     49 H18        -0.3153   -1.6467    1.3762 H         1 <0>         0.1421
     50 H19         1.4475   -2.8492    2.6032 H         1 <0>         0.1262
     51 H20         3.7541   -1.9771    2.6066 H         1 <0>         0.1223
     52 H21         4.7521    2.2348   -0.0815 H         1 <0>         0.1062
     53 H22         3.9085    2.5362    1.4734 H         1 <0>         0.0751
     54 H23         5.0798    0.6042    2.1621 H         1 <0>         0.0913
     55 H24         5.2205   -0.0074    0.4803 H         1 <0>         0.0893
@<TRIPOS>BOND
     1    1    2 1
     2    1   32 1
     3    1   33 1
     4    1   34 1
     5    2    3 1
     6    2    4 1
     7    2   23 1
     8    3   35 1
     9    3   36 1
    10    3   37 1
    11    4    5 1
    12    4   38 1
    13    4   39 1
    14    5    6 1
    15    5   18 1
    16    5   22 1
    17    6    7 1
    18    6   40 1
    19    6   41 1
    20    7   13 1
    21    7    8 1
    22    8    9 2
    23    8   42 1
    24    9   10 1
    25    9   43 1
    26   10   11 2
    27   10   12 1
    28   12   17 ar
    29   12   13 ar
    30   13   14 ar
    31   14   15 ar
    32   14   44 1
    33   15   16 ar
    34   15   45 1
    35   16   17 ar
    36   16   46 1
    37   17   47 1
    38   18   19 1
    39   18   20 1
    40   18   21 1
    41   22   48 1
    42   23   28 ar
    43   23   24 ar
    44   24   25 ar
    45   24   49 1
    46   25   26 ar
    47   25   50 1
    48   26   27 ar
    49   26   51 1
    50   27   31 1
    51   27   28 ar
    52   28   29 1
    53   29   30 1
    54   30   31 1
    55   30   52 1
    56   30   53 1
    57   31   54 1
    58   31   55 1
@<TRIPOS>MOLECULE
CHEMBL133656
   37    39     0     0     0
SMALL
USER_CHARGES

@<TRIPOS>ATOM
      1 C1         -0.0184    1.5028    0.0103 C.3       1 <0>        -0.1184
      2 C2          0.0021   -0.0041    0.0020 C.2       1 <0>        -0.0644
      3 C3          0.0057   -0.6646   -1.1488 C.2       1 <0>        -0.1701
      4 C4          0.0106   -2.1697   -1.1820 C.3       1 <0>         0.2116
      5 N1          0.6719   -2.6956    0.0192 N.pl3     1 <0>        -0.7361
      6 C5          0.3666   -2.1149    1.2519 C.ar      1 <0>         0.2410
      7 C6          0.0243   -0.7530    1.2746 C.ar      1 <0>        -0.1120
      8 C7         -0.2886   -0.1403    2.4804 C.ar      1 <0>        -0.0404
      9 C8         -0.2497   -0.8851    3.6594 C.ar      1 <0>        -0.0852
     10 C9          0.1022   -2.2366    3.6244 C.ar      1 <0>        -0.0340
     11 C10         0.3999   -2.8458    2.4261 C.ar      1 <0>        -0.1770
     12 C11        -0.5812   -0.2425    4.9490 C.2       1 <0>        -0.0250
     13 C12        -0.5979   -0.7869    6.2051 C.2       1 <0>        -0.1929
     14 C13        -0.9430    0.0163    7.2706 C.2       1 <0>        -0.0321
     15 C14        -1.2548    1.3178    7.0438 C.2       1 <0>        -0.1860
     16 S1         -1.0564    1.4474    5.2745 S.3       1 <0>         0.1927
     17 N2         -1.6535    2.3685    8.0204 N.pl3     1 <0>         0.0800
     18 O1         -1.7327    2.1016    9.1969 O.2       1 <0>        -0.1429
     19 O2         -1.8980    3.4887    7.6369 O.3       1 <0>        -0.1488
     20 C15         0.7620   -2.6478   -2.4260 C.3       1 <0>        -0.1534
     21 C16        -1.4304   -2.6813   -1.2336 C.3       1 <0>        -0.1589
     22 H1          1.0042    1.8801    0.0026 H         1 <0>         0.0733
     23 H2         -0.5455    1.8639   -0.8728 H         1 <0>         0.0710
     24 H3         -0.5286    1.8543    0.9071 H         1 <0>         0.0668
     25 H4          0.0047   -0.1131   -2.0774 H         1 <0>         0.1265
     26 H5          1.3052   -3.4278   -0.0423 H         1 <0>         0.4059
     27 H6         -0.5597    0.9048    2.5055 H         1 <0>         0.1300
     28 H7          0.1330   -2.8077    4.5405 H         1 <0>         0.1330
     29 H8          0.6711   -3.8910    2.4052 H         1 <0>         0.1343
     30 H9         -0.3457   -1.8259    6.3581 H         1 <0>         0.1578
     31 H10        -0.9654   -0.3848    8.2731 H         1 <0>         0.1602
     32 H11         1.7879   -2.2810   -2.3942 H         1 <0>         0.0643
     33 H12         0.7663   -3.7375   -2.4514 H         1 <0>         0.0649
     34 H13         0.2669   -2.2656   -3.3188 H         1 <0>         0.0765
     35 H14        -1.9198   -2.2990   -2.1293 H         1 <0>         0.0686
     36 H15        -1.4284   -3.7710   -1.2576 H         1 <0>         0.0618
     37 H16        -1.9696   -2.3383   -0.3505 H         1 <0>         0.0575
@<TRIPOS>BOND
     1    1    2 1
     2    1   22 1
     3    1   23 1
     4    1   24 1
     5    2    7 1
     6    2    3 2
     7    3    4 1
     8    3   25 1
     9    4    5 1
    10    4   20 1
    11    4   21 1
    12    5    6 1
    13    5   26 1
    14    6   11 ar
    15    6    7 ar
    16    7    8 ar
    17    8    9 ar
    18    8   27 1
    19    9   10 ar
    20    9   12 1
    21   10   11 ar
    22   10   28 1
    23   11   29 1
    24   12   16 1
    25   12   13 2
    26   13   14 1
    27   13   30 1
    28   14   15 2
    29   14   31 1
    30   15   16 1
    31   15   17 1
    32   17   18 2
    33   17   19 1
    34   20   32 1
    35   20   33 1
    36   20   34 1
    37   21   35 1
    38   21   36 1
    39   21   37 1
@<TRIPOS>MOLECULE
CHEMBL551863
   71    76     0     0     0
SMALL
USER_CHARGES

@<TRIPOS>ATOM
      1 C1          0.2589    1.6401    0.3678 C.3       1 <0>        -0.1252
      2 C2          0.0327    0.1764   -0.0103 C.3       1 <0>        -0.0789
      3 C3         -1.4376   -0.1743   -0.1685 C.3       1 <0>         0.0904
      4 O1         -2.2680    0.5013    0.7508 O.3       1 <0>        -0.3651
      5 C4         -1.9306    0.5604    2.1130 C.3       1 <0>         0.1819
      6 H1         -1.3017    1.4651    2.2737 H         1 <0>         0.0655
      7 C5         -1.1221   -0.5998    2.6273 C.2       1 <0>        -0.1019
      8 C6         -1.6547   -1.7036    3.1144 C.2       1 <0>        -0.0811
      9 C7         -3.1065   -2.0908    2.9356 C.3       1 <0>        -0.0758
     10 C8         -3.1708   -3.5595    2.4928 C.3       1 <0>        -0.1678
     11 C9         -2.3747   -4.4192    3.4343 C.2       1 <0>         0.3867
     12 O2         -2.7769   -5.5278    3.7184 O.2       1 <0>        -0.4671
     13 C10        -1.1705   -3.9487    3.9907 C.2       1 <0>        -0.2381
     14 C11        -0.8061   -2.6672    3.8226 C.2       1 <0>         0.0147
     15 C12         0.4783   -2.1064    4.3912 C.3       1 <0>        -0.0941
     16 C13         1.2260   -1.4190    3.2654 C.3       1 <0>        -0.1156
     17 C14         0.3883   -0.4496    2.4435 C.3       1 <0>        -0.0438
     18 H2          0.6858    0.5658    2.6706 H         1 <0>         0.0931
     19 C15         0.6654   -0.8259    0.9754 C.3       1 <0>        -0.0787
     20 H3          0.3136   -1.8480    0.7698 H         1 <0>         0.0837
     21 C16         2.1717   -0.7104    0.6536 C.3       1 <0>        -0.1166
     22 C17         2.2114   -0.5604   -0.8864 C.3       1 <0>        -0.1334
     23 C18         0.8106   -0.1020   -1.3169 C.3       1 <0>         0.1437
     24 C19         0.1285   -1.1412   -2.1647 C.2       1 <0>        -0.1467
     25 C20        -0.0394   -2.4190   -1.9271 C.2       1 <0>        -0.1592
     26 C21        -0.3318   -0.3737   -3.4046 C.3       1 <0>        -0.1305
     27 C22         0.7166    0.7703   -3.4594 C.3       1 <0>         0.0451
     28 O3          0.9024    1.1149   -2.0695 O.3       1 <0>        -0.3543
     29 C23        -3.1426    0.8241    2.9689 C.ar      1 <0>        -0.1422
     30 C24        -2.9908    1.3701    4.2303 C.ar      1 <0>        -0.0570
     31 C25        -4.0993    1.6130    5.0173 C.ar      1 <0>        -0.1972
     32 C26        -5.3679    1.3083    4.5404 C.ar      1 <0>         0.2179
     33 C27        -5.5168    0.7599    3.2728 C.ar      1 <0>        -0.2005
     34 C28        -4.4044    0.5248    2.4889 C.ar      1 <0>        -0.0454
     35 N1         -6.4912    1.5522    5.3338 N.pl3     1 <0>        -0.6384
     36 C29        -6.3323    2.1301    6.6706 C.3       1 <0>         0.0923
     37 C30        -7.8284    1.2302    4.8293 C.3       1 <0>         0.0921
     38 H4          1.3123    1.8895    0.2408 H         1 <0>         0.0615
     39 H5         -0.3459    2.2792   -0.2756 H         1 <0>         0.0672
     40 H6         -0.0285    1.7954    1.4077 H         1 <0>         0.0595
     41 H7         -1.7567    0.0809   -1.1911 H         1 <0>         0.0913
     42 H8         -1.5755   -1.2558   -0.0439 H         1 <0>         0.0474
     43 H9         -3.6460   -1.9628    3.8715 H         1 <0>         0.0813
     44 H10        -3.5609   -1.4959    2.1385 H         1 <0>         0.0943
     45 H11        -4.2091   -3.8928    2.4952 H         1 <0>         0.0956
     46 H12        -2.7616   -3.6476    1.4864 H         1 <0>         0.0973
     47 H13        -0.5373   -4.6226    4.5509 H         1 <0>         0.1366
     48 H14         0.2481   -1.3909    5.1801 H         1 <0>         0.0881
     49 H15         1.0797   -2.9205    4.7969 H         1 <0>         0.0830
     50 H16         2.0687   -0.8743    3.6922 H         1 <0>         0.0750
     51 H17         1.6166   -2.1882    2.5960 H         1 <0>         0.0705
     52 H18         2.6102    0.1561    1.1391 H         1 <0>         0.0746
     53 H19         2.6931   -1.6197    0.9523 H         1 <0>         0.0691
     54 H20         2.9505    0.1899   -1.1696 H         1 <0>         0.0780
     55 H21         2.4580   -1.5123   -1.3513 H         1 <0>         0.0709
     56 H22         0.3399   -2.8529   -1.0137 H         1 <0>         0.1061
     57 H23        -0.5571   -3.0383   -2.6447 H         1 <0>         0.1110
     58 H24        -0.2656   -0.9993   -4.2918 H         1 <0>         0.0855
     59 H25        -1.3350    0.0255   -3.2747 H         1 <0>         0.0902
     60 H26         1.6494    0.4189   -3.8970 H         1 <0>         0.0630
     61 H27         0.3225    1.6192   -4.0160 H         1 <0>         0.0941
     62 H28        -2.0041    1.6064    4.6006 H         1 <0>         0.1182
     63 H29        -3.9801    2.0391    6.0025 H         1 <0>         0.1220
     64 H30        -6.5017    0.5215    2.8992 H         1 <0>         0.1215
     65 H31        -4.5198    0.1026    1.5015 H         1 <0>         0.1270
     66 H32        -6.3696    3.2174    6.6032 H         1 <0>         0.0485
     67 H33        -7.1367    1.7783    7.3166 H         1 <0>         0.0663
     68 H34        -5.3722    1.8247    7.0867 H         1 <0>         0.0687
     69 H35        -8.0832    0.2064    5.1031 H         1 <0>         0.0485
     70 H36        -8.5559    1.9148    5.2654 H         1 <0>         0.0662
     71 H37        -7.8409    1.3299    3.7439 H         1 <0>         0.0694
@<TRIPOS>BOND
     1    1    2 1
     2    1   38 1
     3    1   39 1
     4    1   40 1
     5    2   19 1
     6    2   23 1
     7    2    3 1
     8    3    4 1
     9    3   41 1
    10    3   42 1
    11    4    5 1
    12    5    6 1
    13    5    7 1
    14    5   29 1
    15    7   17 1
    16    7    8 2
    17    8   14 1
    18    8    9 1
    19    9   10 1
    20    9   43 1
    21    9   44 1
    22   10   11 1
    23   10   45 1
    24   10   46 1
    25   11   12 2
    26   11   13 1
    27   13   14 2
    28   13   47 1
    29   14   15 1
    30   15   16 1
    31   15   48 1
    32   15   49 1
    33   16   17 1
    34   16   50 1
    35   16   51 1
    36   17   18 1
    37   17   19 1
    38   19   20 1
    39   19   21 1
    40   21   22 1
    41   21   52 1
    42   21   53 1
    43   22   23 1
    44   22   54 1
    45   22   55 1
    46   23   28 1
    47   23   24 1
    48   24   25 2
    49   24   26 1
    50   25   56 1
    51   25   57 1
    52   26   27 1
    53   26   58 1
    54   26   59 1
    55   27   28 1
    56   27   60 1
    57   27   61 1
    58   29   34 ar
    59   29   30 ar
    60   30   31 ar
    61   30   62 1
    62   31   32 ar
    63   31   63 1
    64   32   33 ar
    65   32   35 1
    66   33   34 ar
    67   33   64 1
    68   34   65 1
    69   35   36 1
    70   35   37 1
    71   36   66 1
    72   36   67 1
    73   36   68 1
    74   37   69 1
    75   37   70 1
    76   37   71 1
@<TRIPOS>MOLECULE
CHEMBL6735
   42    44     0     0     0
SMALL
USER_CHARGES

@<TRIPOS>ATOM
      1 C1         -0.3147    1.8014   -0.6266 C.3       1 <0>        -0.1611
      2 C2         -0.2195    0.2765   -0.5477 C.3       1 <0>        -0.1190
      3 C3         -1.6253   -0.3173   -0.4372 C.3       1 <0>        -0.1024
      4 C4         -2.2551    0.0980    0.8947 C.3       1 <0>         0.0854
      5 N1         -3.5748   -0.5106    1.0333 N.pl3     1 <0>        -0.6375
      6 C5         -3.8760   -1.6867    0.4922 C.ar      1 <0>         0.3584
      7 C6         -5.1694   -2.2151    0.6826 C.ar      1 <0>        -0.2506
      8 C7         -5.5028   -3.4345    0.1366 C.ar      1 <0>         0.2294
      9 C8         -4.5377   -4.1485   -0.6150 C.ar      1 <0>        -0.1824
     10 C9         -3.2473   -3.6121   -0.8021 C.ar      1 <0>         0.0028
     11 C10        -2.9250   -2.4115   -0.2648 C.ar      1 <0>        -0.1286
     12 C11        -1.5427   -1.8471   -0.4835 C.3       1 <0>        -0.0502
     13 C12        -0.6047   -2.3444    0.6183 C.3       1 <0>        -0.1237
     14 C13        -0.4265   -3.8586    0.4914 C.3       1 <0>        -0.1620
     15 C14        -4.8841   -5.3917   -1.1689 C.2       1 <0>         0.0537
     16 C15        -6.1676   -5.8708   -0.9550 C.2       1 <0>        -0.2306
     17 C16        -7.0637   -5.1268   -0.2129 C.2       1 <0>         0.4471
     18 O1         -8.3067   -5.6097   -0.0163 O.3       1 <0>        -0.3655
     19 O2         -6.7387   -3.9441    0.3162 O.3       1 <0>        -0.1980
     20 C17        -3.8873   -6.1839   -1.9749 C.3       1 <0>         0.5059
     21 F1         -2.7753   -6.4810   -1.1797 F         1 <0>        -0.1507
     22 F2         -4.4803   -7.3738   -2.4107 F         1 <0>        -0.1501
     23 F3         -3.4809   -5.4325   -3.0828 F         1 <0>        -0.1509
     24 H1          0.6868    2.2244   -0.7054 H         1 <0>         0.0656
     25 H2         -0.8985    2.0842   -1.5026 H         1 <0>         0.0585
     26 H3         -0.8003    2.1822    0.2719 H         1 <0>         0.0554
     27 H4          0.2661   -0.1043   -1.4462 H         1 <0>         0.0794
     28 H5          0.3642   -0.0063    0.3283 H         1 <0>         0.0759
     29 H6         -2.2398    0.0411   -1.2630 H         1 <0>         0.0913
     30 H7         -1.6171   -0.2309    1.7149 H         1 <0>         0.0981
     31 H8         -2.3520    1.1833    0.9264 H         1 <0>         0.1114
     32 H9         -4.2563   -0.0397    1.5379 H         1 <0>         0.4235
     33 H10        -5.8990   -1.6631    1.2566 H         1 <0>         0.1691
     34 H11        -2.5141   -4.1601   -1.3753 H         1 <0>         0.1615
     35 H12        -1.1681   -2.1640   -1.4568 H         1 <0>         0.1077
     36 H13         0.3641   -1.8549    0.5189 H         1 <0>         0.0878
     37 H14        -1.0323   -2.1092    1.5930 H         1 <0>         0.0651
     38 H15        -1.3954   -4.3481    0.5908 H         1 <0>         0.0508
     39 H16         0.0010   -4.0938   -0.4832 H         1 <0>         0.0625
     40 H17         0.2417   -4.2129    1.2763 H         1 <0>         0.0662
     41 H18        -6.4658   -6.8231   -1.3678 H         1 <0>         0.2054
     42 H19        -8.8741   -5.0318    0.5122 H         1 <0>         0.4455
@<TRIPOS>BOND
     1    1    2 1
     2    1   24 1
     3    1   25 1
     4    1   26 1
     5    2    3 1
     6    2   27 1
     7    2   28 1
     8    3   12 1
     9    3    4 1
    10    3   29 1
    11    4    5 1
    12    4   30 1
    13    4   31 1
    14    5    6 2
    15    5   32 1
    16    6   11 ar
    17    6    7 ar
    18    7    8 ar
    19    7   33 1
    20    8   19 1
    21    8    9 ar
    22    9   10 ar
    23    9   15 2
    24   10   11 ar
    25   10   34 1
    26   11   12 1
    27   12   13 1
    28   12   35 1
    29   13   14 1
    30   13   36 1
    31   13   37 1
    32   14   38 1
    33   14   39 1
    34   14   40 1
    35   15   16 1
    36   15   20 1
    37   16   17 2
    38   16   41 1
    39   17   18 1
    40   17   19 1
    41   18   42 1
    42   20   21 1
    43   20   22 1
    44   20   23 1
@<TRIPOS>MOLECULE
CHEMBL6735__1
   42    44     0     0     0
SMALL
USER_CHARGES

@<TRIPOS>ATOM
      1 C1         -0.0947    1.3383    0.4030 C.3       1 <0>        -0.1606
      2 C2          0.0675   -0.1765    0.2615 C.3       1 <0>        -0.1187
      3 C3         -1.3021   -0.8489    0.3754 C.3       1 <0>        -0.1057
      4 C4         -1.8553   -0.6519    1.7891 C.3       1 <0>         0.0869
      5 N1         -3.1365   -1.3386    1.9232 N.pl3     1 <0>        -0.6384
      6 C5         -3.4259   -2.4435    1.2432 C.ar      1 <0>         0.3574
      7 C6         -4.6803   -3.0571    1.4389 C.ar      1 <0>        -0.2504
      8 C7         -5.0000   -4.2062    0.7508 C.ar      1 <0>         0.2288
      9 C8         -4.0607   -4.7616   -0.1521 C.ar      1 <0>        -0.1817
     10 C9         -2.8098   -4.1402   -0.3439 C.ar      1 <0>        -0.0013
     11 C10        -2.5006   -3.0095    0.3344 C.ar      1 <0>        -0.1278
     12 C11        -1.1610   -2.3520    0.1103 C.3       1 <0>        -0.0492
     13 C12        -0.7127   -2.5786   -1.3349 C.3       1 <0>        -0.1251
     14 C13        -1.7188   -1.9309   -2.2885 C.3       1 <0>        -0.1622
     15 C14        -4.3930   -5.9338   -0.8506 C.2       1 <0>         0.0535
     16 C15        -5.6376   -6.5019   -0.6248 C.2       1 <0>        -0.2303
     17 C16        -6.5100   -5.9120    0.2685 C.2       1 <0>         0.4468
     18 O1         -7.7153   -6.4794    0.4742 O.3       1 <0>        -0.3655
     19 O2         -6.1983   -4.7973    0.9354 O.3       1 <0>        -0.1979
     20 C17        -3.4226   -6.5576   -1.8203 C.3       1 <0>         0.5057
     21 F1         -2.2653   -6.9461   -1.1370 F         1 <0>        -0.1507
     22 F2         -4.0123   -7.6789   -2.4138 F         1 <0>        -0.1500
     23 F3         -3.0895   -5.6270   -2.8103 F         1 <0>        -0.1508
     24 H1          0.8810    1.8173    0.3219 H         1 <0>         0.0655
     25 H2         -0.7483    1.7090   -0.3865 H         1 <0>         0.0582
     26 H3         -0.5324    1.5676    1.3746 H         1 <0>         0.0553
     27 H4          0.5051   -0.4059   -0.7100 H         1 <0>         0.0815
     28 H5          0.7211   -0.5473    1.0511 H         1 <0>         0.0728
     29 H6         -1.9860   -0.4117   -0.3520 H         1 <0>         0.0956
     30 H7         -1.1495   -1.0580    2.5137 H         1 <0>         0.0963
     31 H8         -1.9936    0.4126    1.9784 H         1 <0>         0.1119
     32 H9         -3.8002   -0.9758    2.5304 H         1 <0>         0.4235
     33 H10        -5.3905   -2.6259    2.1290 H         1 <0>         0.1691
     34 H11        -2.0962   -4.5673   -1.0329 H         1 <0>         0.1641
     35 H12        -0.4265   -2.7768    0.7945 H         1 <0>         0.1056
     36 H13         0.2699   -2.1313   -1.4849 H         1 <0>         0.0872
     37 H14        -0.6592   -3.6487   -1.5352 H         1 <0>         0.0712
     38 H15        -2.7210   -2.2939   -2.0605 H         1 <0>         0.0504
     39 H16        -1.6885   -0.8480   -2.1680 H         1 <0>         0.0623
     40 H17        -1.4638   -2.1894   -3.3162 H         1 <0>         0.0659
     41 H18        -5.9238   -7.4035   -1.1459 H         1 <0>         0.2054
     42 H19        -8.2680   -6.0083    1.1126 H         1 <0>         0.4454
@<TRIPOS>BOND
     1    1    2 1
     2    1   24 1
     3    1   25 1
     4    1   26 1
     5    2    3 1
     6    2   27 1
     7    2   28 1
     8    3   12 1
     9    3    4 1
    10    3   29 1
    11    4    5 1
    12    4   30 1
    13    4   31 1
    14    5    6 2
    15    5   32 1
    16    6   11 ar
    17    6    7 ar
    18    7    8 ar
    19    7   33 1
    20    8   19 1
    21    8    9 ar
    22    9   10 ar
    23    9   15 2
    24   10   11 ar
    25   10   34 1
    26   11   12 1
    27   12   13 1
    28   12   35 1
    29   13   14 1
    30   13   36 1
    31   13   37 1
    32   14   38 1
    33   14   39 1
    34   14   40 1
    35   15   16 1
    36   15   20 1
    37   16   17 2
    38   16   41 1
    39   17   18 1
    40   17   19 1
    41   18   42 1
    42   20   21 1
    43   20   22 1
    44   20   23 1
@<TRIPOS>MOLECULE
CHEMBL6735__2
   42    44     0     0     0
SMALL
USER_CHARGES

@<TRIPOS>ATOM
      1 C1         -0.8778    2.0362    0.4753 C.3       1 <0>        -0.1607
      2 C2         -0.6190    0.5289    0.4324 C.3       1 <0>        -0.1187
      3 C3         -1.9416   -0.2207    0.6043 C.3       1 <0>        -0.1057
      4 C4         -2.8453    0.0486   -0.6014 C.3       1 <0>         0.0870
      5 N1         -4.0872   -0.7079   -0.4725 N.pl3     1 <0>        -0.6384
      6 C5         -4.1450   -1.8787    0.1542 C.ar      1 <0>         0.3575
      7 C6         -5.3799   -2.5560    0.2238 C.ar      1 <0>        -0.2504
      8 C7         -5.4631   -3.7729    0.8627 C.ar      1 <0>         0.2288
      9 C8         -4.3011   -4.3340    1.4468 C.ar      1 <0>        -0.1817
     10 C9         -3.0708   -3.6493    1.3742 C.ar      1 <0>        -0.0013
     11 C10        -2.9946   -2.4517    0.7465 C.ar      1 <0>        -0.1278
     12 C11        -1.6721   -1.7274    0.6870 C.3       1 <0>        -0.0492
     13 C12        -0.8603   -2.0355    1.9467 C.3       1 <0>        -0.1251
     14 C13        -1.6160   -1.5289    3.1769 C.3       1 <0>        -0.1623
     15 C14        -4.3929   -5.5756    2.0967 C.2       1 <0>         0.0535
     16 C15        -5.6281   -6.2042    2.1398 C.2       1 <0>        -0.2304
     17 C16        -6.7245   -5.6052    1.5514 C.2       1 <0>         0.4468
     18 O1         -7.9166   -6.2321    1.6041 O.3       1 <0>        -0.3655
     19 O2         -6.6420   -4.4246    0.9318 O.3       1 <0>        -0.1980
     20 C17        -3.1807   -6.2084    2.7302 C.3       1 <0>         0.5057
     21 F1         -2.6516   -5.3418    3.6927 F         1 <0>        -0.1508
     22 F2         -3.5480   -7.4132    3.3390 F         1 <0>        -0.1500
     23 F3         -2.2172   -6.4575    1.7470 F         1 <0>        -0.1507
     24 H1          0.0645    2.5703    0.3529 H         1 <0>         0.0655
     25 H2         -1.5585    2.3111   -0.3304 H         1 <0>         0.0553
     26 H3         -1.3237    2.3012    1.4340 H         1 <0>         0.0582
     27 H4         -0.1731    0.2639   -0.5262 H         1 <0>         0.0728
     28 H5          0.0618    0.2541    1.2381 H         1 <0>         0.0815
     29 H6         -2.4355    0.1132    1.5168 H         1 <0>         0.0957
     30 H7         -3.0737    1.1132   -0.6518 H         1 <0>         0.1119
     31 H8         -2.3309   -0.2531   -1.5138 H         1 <0>         0.0963
     32 H9         -4.8991   -0.3432   -0.8582 H         1 <0>         0.4235
     33 H10        -6.2607   -2.1199   -0.2238 H         1 <0>         0.1691
     34 H11        -2.1870   -4.0810    1.8203 H         1 <0>         0.1641
     35 H12        -1.1189   -2.0490   -0.1954 H         1 <0>         0.1055
     36 H13        -0.7122   -3.1122    2.0292 H         1 <0>         0.0712
     37 H14         0.1081   -1.5391    1.8853 H         1 <0>         0.0872
     38 H15        -1.6733   -0.4409    3.1456 H         1 <0>         0.0624
     39 H16        -2.6231   -1.9458    3.1819 H         1 <0>         0.0504
     40 H17        -1.0898   -1.8391    4.0797 H         1 <0>         0.0659
     41 H18        -5.7325   -7.1596    2.6324 H         1 <0>         0.2054
     42 H19        -8.6340   -5.7501    1.1703 H         1 <0>         0.4454
@<TRIPOS>BOND
     1    1    2 1
     2    1   24 1
     3    1   25 1
     4    1   26 1
     5    2    3 1
     6    2   27 1
     7    2   28 1
     8    3   12 1
     9    3    4 1
    10    3   29 1
    11    4    5 1
    12    4   30 1
    13    4   31 1
    14    5    6 2
    15    5   32 1
    16    6   11 ar
    17    6    7 ar
    18    7    8 ar
    19    7   33 1
    20    8   19 1
    21    8    9 ar
    22    9   10 ar
    23    9   15 2
    24   10   11 ar
    25   10   34 1
    26   11   12 1
    27   12   13 1
    28   12   35 1
    29   13   14 1
    30   13   36 1
    31   13   37 1
    32   14   38 1
    33   14   39 1
    34   14   40 1
    35   15   16 1
    36   15   20 1
    37   16   17 2
    38   16   41 1
    39   17   18 1
    40   17   19 1
    41   18   42 1
    42   20   21 1
    43   20   22 1
    44   20   23 1
@<TRIPOS>MOLECULE
CHEMBL6735__3
   42    44     0     0     0
SMALL
USER_CHARGES

@<TRIPOS>ATOM
      1 C1         -0.9780    1.1059    0.0284 C.3       1 <0>        -0.1585
      2 C2         -0.7559   -0.4077    0.0535 C.3       1 <0>        -0.1269
      3 C3         -2.1076   -1.1202    0.1312 C.3       1 <0>        -0.1069
      4 C4         -2.8958   -0.8687   -1.1566 C.3       1 <0>         0.0878
      5 N1         -2.1717   -1.4171   -2.2994 N.pl3     1 <0>        -0.6354
      6 C5         -1.3857   -2.4843   -2.1978 C.ar      1 <0>         0.3596
      7 C6         -0.7314   -2.9631   -3.3515 C.ar      1 <0>        -0.2517
      8 C7          0.0831   -4.0705   -3.2721 C.ar      1 <0>         0.2294
      9 C8          0.2562   -4.7199   -2.0253 C.ar      1 <0>        -0.1810
     10 C9         -0.4003   -4.2336   -0.8763 C.ar      1 <0>        -0.0040
     11 C10        -1.1987   -3.1429   -0.9593 C.ar      1 <0>        -0.1276
     12 C11        -1.8858   -2.6294    0.2823 C.3       1 <0>        -0.0487
     13 C12        -1.0065   -2.8992    1.5050 C.3       1 <0>        -0.1255
     14 C13        -1.7381   -2.4448    2.7696 C.3       1 <0>        -0.1582
     15 C14         1.0882   -5.8490   -1.9512 C.2       1 <0>         0.0529
     16 C15         1.7105   -6.2830   -3.1118 C.2       1 <0>        -0.2304
     17 C16         1.5017   -5.6063   -4.2974 C.2       1 <0>         0.4462
     18 O1          2.1158   -6.0437   -5.4148 O.3       1 <0>        -0.3657
     19 O2          0.7111   -4.5322   -4.3729 O.3       1 <0>        -0.1980
     20 C17         1.2993   -6.5696   -0.6446 C.3       1 <0>         0.5058
     21 F1          0.0657   -7.0004   -0.1450 F         1 <0>        -0.1512
     22 F2          2.1308   -7.6756   -0.8512 F         1 <0>        -0.1501
     23 F3          1.8977   -5.7017    0.2751 F         1 <0>        -0.1507
     24 H1         -0.0150    1.6135   -0.0269 H         1 <0>         0.0617
     25 H2         -1.5787    1.3706   -0.8417 H         1 <0>         0.0535
     26 H3         -1.4984    1.4119    0.9359 H         1 <0>         0.0632
     27 H4         -0.2355   -0.7137   -0.8540 H         1 <0>         0.0564
     28 H5         -0.1551   -0.6724    0.9237 H         1 <0>         0.0819
     29 H6         -2.6700   -0.7457    0.9865 H         1 <0>         0.1161
     30 H7         -3.8720   -1.3480   -1.0829 H         1 <0>         0.0967
     31 H8         -3.0306    0.2041   -1.2947 H         1 <0>         0.1125
     32 H9         -2.2678   -0.9876   -3.1638 H         1 <0>         0.4234
     33 H10        -0.8688   -2.4608   -4.2977 H         1 <0>         0.1689
     34 H11        -0.2662   -4.7321    0.0723 H         1 <0>         0.1638
     35 H12        -2.8465   -3.1302    0.4018 H         1 <0>         0.1061
     36 H13        -0.7944   -3.9663    1.5716 H         1 <0>         0.0701
     37 H14        -0.0710   -2.3482    1.4086 H         1 <0>         0.0772
     38 H15        -1.9593   -1.3798    2.6985 H         1 <0>         0.0611
     39 H16        -2.6687   -3.0032    2.8714 H         1 <0>         0.0606
     40 H17        -1.1076   -2.6276    3.6397 H         1 <0>         0.0649
     41 H18         2.3570   -7.1478   -3.0886 H         1 <0>         0.2052
     42 H19         1.9199   -5.5183   -6.2026 H         1 <0>         0.4453
@<TRIPOS>BOND
     1    1    2 1
     2    1   24 1
     3    1   25 1
     4    1   26 1
     5    2    3 1
     6    2   27 1
     7    2   28 1
     8    3   12 1
     9    3    4 1
    10    3   29 1
    11    4    5 1
    12    4   30 1
    13    4   31 1
    14    5    6 2
    15    5   32 1
    16    6   11 ar
    17    6    7 ar
    18    7    8 ar
    19    7   33 1
    20    8   19 1
    21    8    9 ar
    22    9   10 ar
    23    9   15 2
    24   10   11 ar
    25   10   34 1
    26   11   12 1
    27   12   13 1
    28   12   35 1
    29   13   14 1
    30   13   36 1
    31   13   37 1
    32   14   38 1
    33   14   39 1
    34   14   40 1
    35   15   16 1
    36   15   20 1
    37   16   17 2
    38   16   41 1
    39   17   18 1
    40   17   19 1
    41   18   42 1
    42   20   21 1
    43   20   22 1
    44   20   23 1
@<TRIPOS>MOLECULE
CHEMBL136376
   34    36     0     0     0
SMALL
USER_CHARGES

@<TRIPOS>ATOM
      1 C1         -0.0187    1.5258    0.0104 C.3       1 <0>        -0.1439
      2 C2          0.0021   -0.0041    0.0020 C.3       1 <0>         0.1664
      3 C3         -1.4115   -0.5287    0.0287 C.ar      1 <0>        -0.1586
      4 C4         -2.4385    0.1746   -0.5574 C.ar      1 <0>        -0.0513
      5 C5         -3.7364   -0.3350   -0.5188 C.ar      1 <0>        -0.0733
      6 C6         -3.9881   -1.5525    0.1121 C.ar      1 <0>        -0.0606
      7 C7         -2.9546   -2.2528    0.6993 C.ar      1 <0>        -0.1431
      8 C8         -1.6651   -1.7434    0.6596 C.ar      1 <0>         0.1738
      9 N1         -0.5990   -2.4310    1.2506 N.am      1 <0>        -0.6682
     10 C9          0.5629   -1.7822    1.4721 C.2       1 <0>         0.6621
     11 O1          1.5019   -2.3806    1.9587 O.2       1 <0>        -0.4985
     12 O2          0.6935   -0.4804    1.1602 O.3       1 <0>        -0.3304
     13 C10        -4.8484    0.4179   -1.1492 C.ar      1 <0>         0.0053
     14 C11        -4.5979    1.6321   -1.7857 C.ar      1 <0>        -0.1470
     15 C12        -5.6375    2.3297   -2.3715 C.ar      1 <0>         0.1235
     16 C13        -6.9263    1.8233   -2.3262 C.ar      1 <0>        -0.1488
     17 C14        -7.1791    0.6182   -1.6948 C.ar      1 <0>        -0.0010
     18 C15        -6.1455   -0.0894   -1.1118 C.ar      1 <0>        -0.1162
     19 Cl1        -8.7968   -0.0094   -1.6418 Cl        1 <0>        -0.0486
     20 F1         -5.3966    3.5072   -2.9886 F         1 <0>        -0.1281
     21 C16         0.7122   -0.5002   -1.2592 C.3       1 <0>        -0.1724
     22 H1          1.0039    1.9031    0.0027 H         1 <0>         0.0802
     23 H2         -0.5459    1.8868   -0.8726 H         1 <0>         0.0865
     24 H3         -0.5289    1.8773    0.9072 H         1 <0>         0.0746
     25 H4         -2.2406    1.1176   -1.0452 H         1 <0>         0.1406
     26 H5         -4.9929   -1.9476    0.1414 H         1 <0>         0.1393
     27 H6         -3.1492   -3.1956    1.1889 H         1 <0>         0.1407
     28 H7         -0.6946   -3.3639    1.4987 H         1 <0>         0.4316
     29 H8         -3.5935    2.0273   -1.8209 H         1 <0>         0.1450
     30 H9         -7.7362    2.3710   -2.7849 H         1 <0>         0.1492
     31 H10        -6.3434   -1.0323   -0.6238 H         1 <0>         0.1448
     32 H11         1.7350   -0.1238   -1.2721 H         1 <0>         0.0806
     33 H12         0.7260   -1.5901   -1.2634 H         1 <0>         0.0613
     34 H13         0.1813   -0.1401   -2.1404 H         1 <0>         0.0847
@<TRIPOS>BOND
     1    1    2 1
     2    1   22 1
     3    1   23 1
     4    1   24 1
     5    2   12 1
     6    2    3 1
     7    2   21 1
     8    3    8 ar
     9    3    4 ar
    10    4    5 ar
    11    4   25 1
    12    5    6 ar
    13    5   13 1
    14    6    7 ar
    15    6   26 1
    16    7    8 ar
    17    7   27 1
    18    8    9 1
    19    9   10 am
    20    9   28 1
    21   10   11 2
    22   10   12 1
    23   13   18 ar
    24   13   14 ar
    25   14   15 ar
    26   14   29 1
    27   15   16 ar
    28   15   20 1
    29   16   17 ar
    30   16   30 1
    31   17   18 ar
    32   17   19 1
    33   18   31 1
    34   21   32 1
    35   21   33 1
    36   21   34 1
@<TRIPOS>MOLECULE
CHEMBL65929
   50    54     0     0     0
SMALL
USER_CHARGES

@<TRIPOS>ATOM
      1 C1         -0.1808    2.0490    0.2015 C.3       1 <0>        -0.1315
      2 C2         -0.2837    0.5659   -0.0596 C.2       1 <0>        -0.0538
      3 C3         -0.5176    0.1904   -1.3165 C.2       1 <0>        -0.1606
      4 C4         -0.7297   -1.2405   -1.7144 C.3       1 <0>         0.2151
      5 N1         -0.2067   -2.1503   -0.6971 N.pl3     1 <0>        -0.7322
      6 C5         -0.2018   -1.7944    0.6464 C.ar      1 <0>         0.2275
      7 C6         -0.1309   -0.4279    1.0089 C.ar      1 <0>        -0.0334
      8 C7          0.1430   -0.1332    2.3387 C.ar      1 <0>        -0.0356
      9 C8         -0.1521   -1.1159    3.3342 C.ar      1 <0>        -0.0897
     10 C9         -0.3194   -2.4345    2.9646 C.ar      1 <0>        -0.0536
     11 C10        -0.2854   -2.7736    1.6223 C.ar      1 <0>        -0.1733
     12 C11        -0.2711   -0.6481    4.7328 C.ar      1 <0>        -0.0626
     13 C12        -0.5592   -1.5412    5.7602 C.ar      1 <0>        -0.1171
     14 C13        -0.6712   -1.0838    7.0614 C.ar      1 <0>         0.0843
     15 C14        -0.5008    0.2613    7.3435 C.ar      1 <0>        -0.1216
     16 C15        -0.2116    1.1561    6.3290 C.ar      1 <0>        -0.0981
     17 C16        -0.0889    0.7108    5.0241 C.ar      1 <0>         0.1015
     18 O1          0.2197    1.5932    4.0319 O.3       1 <0>        -0.2282
     19 C17         0.7816    1.0594    2.8964 C.2       1 <0>         0.1962
     20 C18         1.9264    1.5788    2.3916 C.2       1 <0>        -0.1759
     21 S1          2.8265    0.7491    1.1111 S.3       1 <0>        -0.0748
     22 C19         3.1074    2.0700   -0.1042 C.3       1 <0>        -0.1248
     23 C20         3.8412    3.2321    0.5578 C.3       1 <0>        -0.1268
     24 C21         2.9028    4.0348    1.4536 C.3       1 <0>        -0.1132
     25 S2          2.5767    3.1174    2.9815 S.3       1 <0>        -0.1018
     26 F1         -0.9453   -1.9522    8.0597 F         1 <0>        -0.1350
     27 C22        -2.2300   -1.4960   -1.9008 C.3       1 <0>        -0.1607
     28 C23        -0.0155   -1.5053   -3.0450 C.3       1 <0>        -0.1546
     29 H1          0.7682    2.2667    0.6915 H         1 <0>         0.0689
     30 H2         -0.2339    2.5888   -0.7439 H         1 <0>         0.0677
     31 H3         -1.0025    2.3624    0.8454 H         1 <0>         0.0719
     32 H4         -0.5523    0.9592   -2.0819 H         1 <0>         0.1262
     33 H5          0.1463   -3.0239   -0.9645 H         1 <0>         0.4058
     34 H6         -0.4755   -3.1990    3.7106 H         1 <0>         0.1348
     35 H7         -0.3243   -3.8136    1.3307 H         1 <0>         0.1318
     36 H8         -0.6960   -2.5904    5.5446 H         1 <0>         0.1442
     37 H9         -0.5944    0.6134    8.3597 H         1 <0>         0.1482
     38 H10        -0.0825    2.2044    6.5557 H         1 <0>         0.1491
     39 H11         3.7084    1.6835   -0.9273 H         1 <0>         0.1169
     40 H12         2.1489    2.4185   -0.4888 H         1 <0>         0.0938
     41 H13         4.6619    2.8408    1.1591 H         1 <0>         0.0917
     42 H14         4.2452    3.8865   -0.2145 H         1 <0>         0.0887
     43 H15         3.3640    4.9922    1.6961 H         1 <0>         0.1203
     44 H16         1.9626    4.2084    0.9303 H         1 <0>         0.0874
     45 H17        -2.6164   -0.8389   -2.6800 H         1 <0>         0.0668
     46 H18        -2.3885   -2.5349   -2.1900 H         1 <0>         0.0620
     47 H19        -2.7517   -1.2957   -0.9649 H         1 <0>         0.0571
     48 H20         1.0510   -1.3121   -2.9297 H         1 <0>         0.0637
     49 H21        -0.1669   -2.5442   -3.3382 H         1 <0>         0.0639
     50 H22        -0.4229   -0.8480   -3.8132 H         1 <0>         0.0734
@<TRIPOS>BOND
     1    1    2 1
     2    1   29 1
     3    1   30 1
     4    1   31 1
     5    2    7 1
     6    2    3 2
     7    3    4 1
     8    3   32 1
     9    4    5 1
    10    4   27 1
    11    4   28 1
    12    5    6 1
    13    5   33 1
    14    6   11 ar
    15    6    7 ar
    16    7    8 ar
    17    8   19 1
    18    8    9 ar
    19    9   10 ar
    20    9   12 1
    21   10   11 ar
    22   10   34 1
    23   11   35 1
    24   12   17 ar
    25   12   13 ar
    26   13   14 ar
    27   13   36 1
    28   14   15 ar
    29   14   26 1
    30   15   16 ar
    31   15   37 1
    32   16   17 ar
    33   16   38 1
    34   17   18 1
    35   18   19 1
    36   19   20 2
    37   20   25 1
    38   20   21 1
    39   21   22 1
    40   22   23 1
    41   22   39 1
    42   22   40 1
    43   23   24 1
    44   23   41 1
    45   23   42 1
    46   24   25 1
    47   24   43 1
    48   24   44 1
    49   27   45 1
    50   27   46 1
    51   27   47 1
    52   28   48 1
    53   28   49 1
    54   28   50 1
@<TRIPOS>MOLECULE
CHEMBL272663
   41    43     0     0     0
SMALL
USER_CHARGES

@<TRIPOS>ATOM
      1 C1         -0.8494   -0.1500    1.0626 C.3       1 <0>        -0.1580
      2 C2          0.6205    0.0896    0.7120 C.3       1 <0>        -0.0994
      3 C3          0.9007   -0.4350   -0.6977 C.3       1 <0>        -0.0505
      4 C4          0.5477   -1.9015   -0.7971 C.ar      1 <0>        -0.1176
      5 C5          1.0175   -3.0190   -0.1513 C.ar      1 <0>        -0.0681
      6 C6          0.4868   -4.2747   -0.4607 C.ar      1 <0>        -0.0449
      7 C7         -0.5179   -4.3786   -1.4258 C.ar      1 <0>        -0.0569
      8 C8         -0.9814   -3.2529   -2.0668 C.ar      1 <0>        -0.1320
      9 C9         -0.4525   -1.9984   -1.7589 C.ar      1 <0>         0.1526
     10 N1         -0.7555   -0.7359   -2.2668 N.am      1 <0>        -0.6604
     11 C10        -0.0134    0.2319   -1.7033 C.2       1 <0>         0.5417
     12 O1         -0.0664    1.4176   -1.9530 O.2       1 <0>        -0.4924
     13 C11         0.9851   -5.4830    0.2273 C.2       1 <0>         0.0991
     14 C12         0.3088   -6.6772    0.3520 C.2       1 <0>        -0.1794
     15 C13         1.1249   -7.5529    1.0669 C.2       1 <0>        -0.1066
     16 C14         2.2914   -6.8788    1.3695 C.2       1 <0>         0.0535
     17 N2          2.1979   -5.6096    0.8440 N.pl3     1 <0>        -0.4155
     18 C15         3.2246   -4.5685    0.9343 C.3       1 <0>         0.0558
     19 C16         3.4054   -7.4087    2.0968 C.1       1 <0>         0.2767
     20 N3          4.2890   -7.8291    2.6737 N.1       1 <0>        -0.4046
     21 C17         2.3666   -0.2068   -1.0717 C.3       1 <0>        -0.0991
     22 C18         2.6068   -0.6816   -2.5062 C.3       1 <0>        -0.1591
     23 H1         -1.4830    0.4078    0.3729 H         1 <0>         0.0507
     24 H2         -1.0734   -1.2137    0.9823 H         1 <0>         0.0604
     25 H3         -1.0391    0.1853    2.0822 H         1 <0>         0.0640
     26 H4          0.8340    1.1577    0.7513 H         1 <0>         0.0791
     27 H5          1.2546   -0.4342    1.4273 H         1 <0>         0.0791
     28 H6          1.7947   -2.9279    0.5930 H         1 <0>         0.1311
     29 H7         -0.9319   -5.3457   -1.6698 H         1 <0>         0.1412
     30 H8         -1.7583   -3.3403   -2.8119 H         1 <0>         0.1339
     31 H9         -1.4257   -0.5746   -2.9492 H         1 <0>         0.4146
     32 H10        -0.6758   -6.8954   -0.0344 H         1 <0>         0.1531
     33 H11         0.8879   -8.5718    1.3352 H         1 <0>         0.1538
     34 H12         3.0127   -3.9222    1.7861 H         1 <0>         0.0851
     35 H13         4.2022   -5.0327    1.0647 H         1 <0>         0.0879
     36 H14         3.2228   -3.9761    0.0194 H         1 <0>         0.0977
     37 H15         2.5996    0.8553   -0.9966 H         1 <0>         0.0797
     38 H16         3.0068   -0.7682   -0.3912 H         1 <0>         0.0784
     39 H17         2.2904   -1.7201   -2.6030 H         1 <0>         0.0590
     40 H18         2.0334   -0.0613   -3.1950 H         1 <0>         0.0521
     41 H19         3.6679   -0.6015   -2.7425 H         1 <0>         0.0643
@<TRIPOS>BOND
     1    1    2 1
     2    1   23 1
     3    1   24 1
     4    1   25 1
     5    2    3 1
     6    2   26 1
     7    2   27 1
     8    3   11 1
     9    3    4 1
    10    3   21 1
    11    4    9 ar
    12    4    5 ar
    13    5    6 ar
    14    5   28 1
    15    6    7 ar
    16    6   13 1
    17    7    8 ar
    18    7   29 1
    19    8    9 ar
    20    8   30 1
    21    9   10 1
    22   10   11 am
    23   10   31 1
    24   11   12 2
    25   13   17 1
    26   13   14 2
    27   14   15 1
    28   14   32 1
    29   15   16 2
    30   15   33 1
    31   16   17 1
    32   16   19 1
    33   17   18 1
    34   18   34 1
    35   18   35 1
    36   18   36 1
    37   19   20 3
    38   21   22 1
    39   21   37 1
    40   21   38 1
    41   22   39 1
    42   22   40 1
    43   22   41 1
@<TRIPOS>MOLECULE
CHEMBL165215
   46    49     0     0     0
SMALL
USER_CHARGES

@<TRIPOS>ATOM
      1 C1         -0.1440    1.5083    0.0572 C.3       1 <0>        -0.1564
      2 C2         -0.0604   -0.0191    0.0234 C.3       1 <0>         0.3090
      3 N1         -1.4153   -0.5924    0.0452 N.pl3     1 <0>        -0.7582
      4 C3         -1.5512   -1.9419    0.3914 C.ar      1 <0>         0.2337
      5 C4         -2.7535   -2.6002    0.1661 C.ar      1 <0>        -0.1851
      6 C5         -2.8869   -3.9284    0.5112 C.ar      1 <0>        -0.0512
      7 C6         -1.8135   -4.6073    1.0861 C.ar      1 <0>        -0.1113
      8 C7         -0.6085   -3.9443    1.3091 C.ar      1 <0>        -0.0432
      9 C8         -0.4771   -2.6152    0.9610 C.ar      1 <0>        -0.1751
     10 C9          0.8315   -1.9072    1.1971 C.3       1 <0>         0.2106
     11 O1          0.6364   -0.4924    1.1829 O.3       1 <0>        -0.3671
     12 C10         1.8224   -2.2934    0.0971 C.3       1 <0>        -0.1722
     13 C11         1.3889   -2.3210    2.5347 C.ar      1 <0>        -0.0706
     14 C12         2.1022   -3.4993    2.6517 C.ar      1 <0>        -0.1178
     15 C13         2.6134   -3.8788    3.8786 C.ar      1 <0>        -0.1184
     16 C14         2.4117   -3.0799    4.9885 C.ar      1 <0>        -0.1160
     17 C15         1.6992   -1.9011    4.8713 C.ar      1 <0>        -0.1194
     18 C16         1.1916   -1.5194    3.6435 C.ar      1 <0>        -0.0906
     19 C17        -1.9544   -6.0359    1.4609 C.ar      1 <0>         0.0082
     20 C18        -3.1556   -6.7002    1.2338 C.ar      1 <0>        -0.0834
     21 C19        -3.2820   -8.0426    1.5883 C.ar      1 <0>         0.0133
     22 C20        -2.2027   -8.7128    2.1690 C.ar      1 <0>        -0.1172
     23 C21        -1.0122   -8.0464    2.3918 C.ar      1 <0>         0.1134
     24 C22        -0.8816   -6.7156    2.0359 C.ar      1 <0>        -0.1285
     25 F1          0.0290   -8.6981    2.9541 F         1 <0>        -0.1297
     26 C23        -4.5154   -8.7327    1.3579 C.1       1 <0>         0.2502
     27 N2         -5.4939   -9.2801    1.1752 N.1       1 <0>        -0.3994
     28 H1          0.8623    1.9270    0.0691 H         1 <0>         0.0828
     29 H2         -0.6746    1.8628   -0.8264 H         1 <0>         0.0792
     30 H3         -0.6791    1.8231    0.9531 H         1 <0>         0.0724
     31 H4          0.4623   -0.3399   -0.8776 H         1 <0>         0.0722
     32 H5         -2.1905   -0.0518   -0.1733 H         1 <0>         0.4086
     33 H6         -3.5835   -2.0717   -0.2790 H         1 <0>         0.1287
     34 H7         -3.8208   -4.4418    0.3362 H         1 <0>         0.1298
     35 H8          0.2229   -4.4704    1.7545 H         1 <0>         0.1314
     36 H9          1.4201   -2.0017   -0.8731 H         1 <0>         0.0626
     37 H10         2.7701   -1.7821    0.2660 H         1 <0>         0.0731
     38 H11         1.9829   -3.3713    0.1147 H         1 <0>         0.0751
     39 H12         2.2597   -4.1235    1.7845 H         1 <0>         0.1249
     40 H13         3.1701   -4.7998    3.9702 H         1 <0>         0.1256
     41 H14         2.8106   -3.3767    5.9473 H         1 <0>         0.1229
     42 H15         1.5414   -1.2770    5.7385 H         1 <0>         0.1230
     43 H16         0.6381   -0.5967    3.5512 H         1 <0>         0.1270
     44 H17        -3.9873   -6.1777    0.7849 H         1 <0>         0.1425
     45 H18        -2.2986   -9.7526    2.4447 H         1 <0>         0.1469
     46 H19         0.0523   -6.2011    2.2077 H         1 <0>         0.1441
@<TRIPOS>BOND
     1    1    2 1
     2    1   28 1
     3    1   29 1
     4    1   30 1
     5    2   11 1
     6    2    3 1
     7    2   31 1
     8    3    4 1
     9    3   32 1
    10    4    9 ar
    11    4    5 ar
    12    5    6 ar
    13    5   33 1
    14    6    7 ar
    15    6   34 1
    16    7    8 ar
    17    7   19 1
    18    8    9 ar
    19    8   35 1
    20    9   10 1
    21   10   11 1
    22   10   12 1
    23   10   13 1
    24   12   36 1
    25   12   37 1
    26   12   38 1
    27   13   18 ar
    28   13   14 ar
    29   14   15 ar
    30   14   39 1
    31   15   16 ar
    32   15   40 1
    33   16   17 ar
    34   16   41 1
    35   17   18 ar
    36   17   42 1
    37   18   43 1
    38   19   24 ar
    39   19   20 ar
    40   20   21 ar
    41   20   44 1
    42   21   22 ar
    43   21   26 1
    44   22   23 ar
    45   22   45 1
    46   23   24 ar
    47   23   25 1
    48   24   46 1
    49   26   27 3
@<TRIPOS>MOLECULE
CHEMBL165215__1
   46    49     0     0     0
SMALL
USER_CHARGES

@<TRIPOS>ATOM
      1 C1         -0.4591    1.3819   -0.0530 C.3       1 <0>        -0.1919
      2 C2         -0.6604   -0.1284    0.0870 C.3       1 <0>         0.3260
      3 N1         -2.0383   -0.4120    0.5174 N.pl3     1 <0>        -0.7670
      4 C3         -2.3549   -0.1096    1.8469 C.ar      1 <0>         0.2209
      5 C4         -3.6507    0.2312    2.2034 C.ar      1 <0>        -0.1717
      6 C5         -3.9443    0.5305    3.5174 C.ar      1 <0>        -0.0582
      7 C6         -2.9340    0.4877    4.4764 C.ar      1 <0>        -0.1008
      8 C7         -1.6337    0.1423    4.1106 C.ar      1 <0>        -0.0501
      9 C8         -1.3389   -0.1573    2.7946 C.ar      1 <0>        -0.1594
     10 C9          0.0627   -0.5390    2.4063 C.3       1 <0>         0.2272
     11 O1          0.2516   -0.6907    1.0133 O.3       1 <0>        -0.3783
     12 C10         1.0391    0.5192    2.9406 C.3       1 <0>        -0.1637
     13 C11         0.3942   -1.8482    3.0750 C.ar      1 <0>        -0.0791
     14 C12         0.6613   -1.8837    4.4308 C.ar      1 <0>        -0.1137
     15 C13         0.9654   -3.0845    5.0442 C.ar      1 <0>        -0.1184
     16 C14         1.0020   -4.2501    4.3019 C.ar      1 <0>        -0.1189
     17 C15         0.7341   -4.2148    2.9462 C.ar      1 <0>        -0.1210
     18 C16         0.4258   -3.0145    2.3336 C.ar      1 <0>        -0.0934
     19 C17        -3.2420    0.8100    5.8914 C.ar      1 <0>         0.0052
     20 C18        -4.5395    1.1492    6.2619 C.ar      1 <0>        -0.0819
     21 C19        -4.8228    1.4511    7.5931 C.ar      1 <0>         0.0138
     22 C20        -3.8032    1.4113    8.5471 C.ar      1 <0>        -0.1155
     23 C21        -2.5163    1.0735    8.1718 C.ar      1 <0>         0.1134
     24 C22        -2.2329    0.7677    6.8524 C.ar      1 <0>        -0.1280
     25 F1         -1.5330    1.0367    9.0975 F         1 <0>        -0.1293
     26 C23        -6.1558    1.8015    7.9816 C.1       1 <0>         0.2496
     27 N2         -7.2133    2.0795    8.2897 N.1       1 <0>        -0.3982
     28 H1          0.5539    1.5826   -0.4017 H         1 <0>         0.0759
     29 H2         -1.1760    1.7788   -0.7717 H         1 <0>         0.0723
     30 H3         -0.6118    1.8600    0.9145 H         1 <0>         0.0616
     31 H4         -0.5059   -0.5899   -0.9003 H         1 <0>         0.1179
     32 H5         -2.6914   -0.7889   -0.0877 H         1 <0>         0.4108
     33 H6         -4.4293    0.2640    1.4557 H         1 <0>         0.1300
     34 H7         -4.9513    0.7968    3.8005 H         1 <0>         0.1307
     35 H8         -0.8652    0.1078    4.8685 H         1 <0>         0.1287
     36 H9          0.9609    0.5703    4.0266 H         1 <0>         0.0707
     37 H10         2.0573    0.2476    2.6620 H         1 <0>         0.0719
     38 H11         0.7921    1.4906    2.5124 H         1 <0>         0.0636
     39 H12         0.6327   -0.9731    5.0108 H         1 <0>         0.1207
     40 H13         1.1747   -3.1121    6.1034 H         1 <0>         0.1239
     41 H14         1.2403   -5.1882    4.7810 H         1 <0>         0.1216
     42 H15         0.7631   -5.1253    2.3661 H         1 <0>         0.1215
     43 H16         0.2128   -2.9875    1.2751 H         1 <0>         0.1261
     44 H17        -5.3244    1.1788    5.5206 H         1 <0>         0.1429
     45 H18        -4.0204    1.6452    9.5788 H         1 <0>         0.1474
     46 H19        -1.2268    0.4997    6.5656 H         1 <0>         0.1439
@<TRIPOS>BOND
     1    1    2 1
     2    1   28 1
     3    1   29 1
     4    1   30 1
     5    2   11 1
     6    2    3 1
     7    2   31 1
     8    3    4 1
     9    3   32 1
    10    4    9 ar
    11    4    5 ar
    12    5    6 ar
    13    5   33 1
    14    6    7 ar
    15    6   34 1
    16    7    8 ar
    17    7   19 1
    18    8    9 ar
    19    8   35 1
    20    9   10 1
    21   10   11 1
    22   10   12 1
    23   10   13 1
    24   12   36 1
    25   12   37 1
    26   12   38 1
    27   13   18 ar
    28   13   14 ar
    29   14   15 ar
    30   14   39 1
    31   15   16 ar
    32   15   40 1
    33   16   17 ar
    34   16   41 1
    35   17   18 ar
    36   17   42 1
    37   18   43 1
    38   19   24 ar
    39   19   20 ar
    40   20   21 ar
    41   20   44 1
    42   21   22 ar
    43   21   26 1
    44   22   23 ar
    45   22   45 1
    46   23   24 ar
    47   23   25 1
    48   24   46 1
    49   26   27 3
@<TRIPOS>MOLECULE
CHEMBL165215__2
   46    49     0     0     0
SMALL
USER_CHARGES

@<TRIPOS>ATOM
      1 C1          0.0486    1.4454   -0.2176 C.3       1 <0>        -0.1919
      2 C2          0.1918   -0.0755   -0.3008 C.3       1 <0>         0.3260
      3 N1          1.0680   -0.4353   -1.4266 N.pl3     1 <0>        -0.7670
      4 C3          2.4347   -0.1807   -1.2640 C.ar      1 <0>         0.2209
      5 C4          3.2378    0.0879   -2.3620 C.ar      1 <0>        -0.1718
      6 C5          4.5818    0.3414   -2.1831 C.ar      1 <0>        -0.0582
      7 C6          5.1214    0.3246   -0.8983 C.ar      1 <0>        -0.1008
      8 C7          4.3082    0.0509    0.2005 C.ar      1 <0>        -0.0501
      9 C8          2.9617   -0.2019    0.0223 C.ar      1 <0>        -0.1594
     10 C9          2.0903   -0.5055    1.2095 C.3       1 <0>         0.2272
     11 O1          0.7152   -0.6152    0.8994 O.3       1 <0>        -0.3782
     12 C10         2.2878    0.5860    2.2717 C.3       1 <0>        -0.1637
     13 C11         2.5476   -1.8123    1.8044 C.ar      1 <0>        -0.0791
     14 C12         3.7199   -1.8664    2.5351 C.ar      1 <0>        -0.1138
     15 C13         4.1394   -3.0652    3.0809 C.ar      1 <0>        -0.1183
     16 C14         3.3865   -4.2097    2.8964 C.ar      1 <0>        -0.1189
     17 C15         2.2138   -4.1554    2.1665 C.ar      1 <0>        -0.1209
     18 C16         1.7921   -2.9558    1.6243 C.ar      1 <0>        -0.0935
     19 C17         6.5657    0.5987   -0.6981 C.ar      1 <0>         0.0052
     20 C18         7.3796    0.8778   -1.7914 C.ar      1 <0>        -0.0819
     21 C19         8.7361    1.1345   -1.5970 C.ar      1 <0>         0.0138
     22 C20         9.2702    1.1101   -0.3066 C.ar      1 <0>        -0.1155
     23 C21         8.4555    0.8319    0.7751 C.ar      1 <0>         0.1134
     24 C22         7.1076    0.5824    0.5862 C.ar      1 <0>        -0.1279
     25 F1          8.9761    0.8088    2.0216 F         1 <0>        -0.1293
     26 C23         9.5799    1.4222   -2.7177 C.1       1 <0>         0.2496
     27 N2         10.2493    1.6503   -3.6067 N.1       1 <0>        -0.3982
     28 H1          1.0257    1.8930   -0.0361 H         1 <0>         0.0616
     29 H2         -0.3558    1.8242   -1.1563 H         1 <0>         0.0724
     30 H3         -0.6263    1.7027    0.5988 H         1 <0>         0.0760
     31 H4         -0.8039   -0.5060   -0.4889 H         1 <0>         0.1178
     32 H5          0.7170   -0.8283   -2.2370 H         1 <0>         0.4108
     33 H6          2.8143    0.0995   -3.3556 H         1 <0>         0.1300
     34 H7          5.2114    0.5519   -3.0342 H         1 <0>         0.1307
     35 H8          4.7455    0.0341    1.1879 H         1 <0>         0.1287
     36 H9          2.0126    1.5541    1.8535 H         1 <0>         0.0636
     37 H10         1.6582    0.3709    3.1351 H         1 <0>         0.0719
     38 H11         3.3329    0.6075    2.5806 H         1 <0>         0.0707
     39 H12         4.3081   -0.9722    2.6792 H         1 <0>         0.1207
     40 H13         5.0556   -3.1076    3.6511 H         1 <0>         0.1239
     41 H14         3.7147   -5.1464    3.3222 H         1 <0>         0.1216
     42 H15         1.6258   -5.0497    2.0221 H         1 <0>         0.1215
     43 H16         0.8739   -2.9126    1.0573 H         1 <0>         0.1262
     44 H17         6.9621    0.8953   -2.7873 H         1 <0>         0.1429
     45 H18        10.3208    1.3083   -0.1537 H         1 <0>         0.1475
     46 H19         6.4748    0.3704    1.4353 H         1 <0>         0.1439
@<TRIPOS>BOND
     1    1    2 1
     2    1   28 1
     3    1   29 1
     4    1   30 1
     5    2   11 1
     6    2    3 1
     7    2   31 1
     8    3    4 1
     9    3   32 1
    10    4    9 ar
    11    4    5 ar
    12    5    6 ar
    13    5   33 1
    14    6    7 ar
    15    6   34 1
    16    7    8 ar
    17    7   19 1
    18    8    9 ar
    19    8   35 1
    20    9   10 1
    21   10   11 1
    22   10   12 1
    23   10   13 1
    24   12   36 1
    25   12   37 1
    26   12   38 1
    27   13   18 ar
    28   13   14 ar
    29   14   15 ar
    30   14   39 1
    31   15   16 ar
    32   15   40 1
    33   16   17 ar
    34   16   41 1
    35   17   18 ar
    36   17   42 1
    37   18   43 1
    38   19   24 ar
    39   19   20 ar
    40   20   21 ar
    41   20   44 1
    42   21   22 ar
    43   21   26 1
    44   22   23 ar
    45   22   45 1
    46   23   24 ar
    47   23   25 1
    48   24   46 1
    49   26   27 3
@<TRIPOS>MOLECULE
CHEMBL165215__3
   46    49     0     0     0
SMALL
USER_CHARGES

@<TRIPOS>ATOM
      1 C1          0.4457    1.4096   -0.4067 C.3       1 <0>        -0.1564
      2 C2          0.2246   -0.0914   -0.2093 C.3       1 <0>         0.3090
      3 N1          0.7763   -0.8309   -1.3554 N.pl3     1 <0>        -0.7582
      4 C3          1.0086   -2.2026   -1.2007 C.ar      1 <0>         0.2337
      5 C4          1.2641   -2.9946   -2.3130 C.ar      1 <0>        -0.1851
      6 C5          1.4966   -4.3448   -2.1585 C.ar      1 <0>        -0.0512
      7 C6          1.4745   -4.9117   -0.8850 C.ar      1 <0>        -0.1114
      8 C7          1.2161   -4.1146    0.2281 C.ar      1 <0>        -0.0433
      9 C8          0.9820   -2.7636    0.0705 C.ar      1 <0>        -0.1752
     10 C9          0.6947   -1.9095    1.2778 C.3       1 <0>         0.2106
     11 O1          0.9102   -0.5316    0.9697 O.3       1 <0>        -0.3671
     12 C10        -0.7598   -2.1116    1.7071 C.3       1 <0>        -0.1722
     13 C11         1.6065   -2.3173    2.4062 C.ar      1 <0>        -0.0706
     14 C12         2.7644   -1.6033    2.6517 C.ar      1 <0>        -0.0906
     15 C13         3.6008   -1.9774    3.6868 C.ar      1 <0>        -0.1194
     16 C14         3.2789   -3.0652    4.4768 C.ar      1 <0>        -0.1160
     17 C15         2.1205   -3.7787    4.2319 C.ar      1 <0>        -0.1184
     18 C16         1.2820   -3.4020    3.1995 C.ar      1 <0>        -0.1177
     19 C17         1.7257   -6.3640   -0.7151 C.ar      1 <0>         0.0082
     20 C18         1.9889   -7.1598   -1.8256 C.ar      1 <0>        -0.0834
     21 C19         2.2241   -8.5239   -1.6595 C.ar      1 <0>         0.0133
     22 C20         2.1942   -9.0838   -0.3802 C.ar      1 <0>        -0.1171
     23 C21         1.9320   -8.2870    0.7187 C.ar      1 <0>         0.1134
     24 C22         1.7038   -6.9317    0.5579 C.ar      1 <0>        -0.1285
     25 F1          1.9036   -8.8326    1.9543 F         1 <0>        -0.1297
     26 C23         2.4953   -9.3492   -2.7980 C.1       1 <0>         0.2502
     27 N2          2.7104  -10.0039   -3.7011 N.1       1 <0>        -0.3994
     28 H1          1.5120    1.6088   -0.5141 H         1 <0>         0.0724
     29 H2         -0.0776    1.7390   -1.3043 H         1 <0>         0.0791
     30 H3          0.0603    1.9504    0.4576 H         1 <0>         0.0828
     31 H4         -0.8415   -0.2978   -0.1148 H         1 <0>         0.0722
     32 H5          0.9726   -0.3818   -2.1925 H         1 <0>         0.4086
     33 H6          1.2804   -2.5529   -3.2984 H         1 <0>         0.1287
     34 H7          1.6956   -4.9619   -3.0222 H         1 <0>         0.1298
     35 H8          1.1991   -4.5539    1.2146 H         1 <0>         0.1314
     36 H9         -0.9231   -3.1603    1.9554 H         1 <0>         0.0751
     37 H10        -0.9699   -1.4944    2.5807 H         1 <0>         0.0731
     38 H11        -1.4228   -1.8239    0.8912 H         1 <0>         0.0626
     39 H12         3.0159   -0.7535    2.0345 H         1 <0>         0.1270
     40 H13         4.5058   -1.4200    3.8782 H         1 <0>         0.1230
     41 H14         3.9327   -3.3579    5.2851 H         1 <0>         0.1228
     42 H15         1.8693   -4.6287    4.8488 H         1 <0>         0.1256
     43 H16         0.3751   -3.9571    3.0105 H         1 <0>         0.1248
     44 H17         2.0106   -6.7224   -2.8128 H         1 <0>         0.1425
     45 H18         2.3758  -10.1404   -0.2493 H         1 <0>         0.1469
     46 H19         1.5042   -6.3130    1.4203 H         1 <0>         0.1441
@<TRIPOS>BOND
     1    1    2 1
     2    1   28 1
     3    1   29 1
     4    1   30 1
     5    2   11 1
     6    2    3 1
     7    2   31 1
     8    3    4 1
     9    3   32 1
    10    4    9 ar
    11    4    5 ar
    12    5    6 ar
    13    5   33 1
    14    6    7 ar
    15    6   34 1
    16    7    8 ar
    17    7   19 1
    18    8    9 ar
    19    8   35 1
    20    9   10 1
    21   10   11 1
    22   10   12 1
    23   10   13 1
    24   12   36 1
    25   12   37 1
    26   12   38 1
    27   13   18 ar
    28   13   14 ar
    29   14   15 ar
    30   14   39 1
    31   15   16 ar
    32   15   40 1
    33   16   17 ar
    34   16   41 1
    35   17   18 ar
    36   17   42 1
    37   18   43 1
    38   19   24 ar
    39   19   20 ar
    40   20   21 ar
    41   20   44 1
    42   21   22 ar
    43   21   26 1
    44   22   23 ar
    45   22   45 1
    46   23   24 ar
    47   23   25 1
    48   24   46 1
    49   26   27 3
@<TRIPOS>MOLECULE
CHEMBL232828
   71    76     0     0     0
SMALL
USER_CHARGES

@<TRIPOS>ATOM
      1 C1          0.1113    1.6111    0.2974 C.3       1 <0>        -0.1532
      2 C2          0.1783    0.0830    0.2624 C.3       1 <0>        -0.0361
      3 C3         -1.2257   -0.4962    0.2593 C.3       1 <0>        -0.0988
      4 C4         -1.9864    0.1513    1.4273 C.3       1 <0>        -0.0097
      5 H1         -2.9472   -0.3486    1.5504 H         1 <0>         0.0998
      6 C5         -1.1978    0.0370    2.7131 C.2       1 <0>        -0.0911
      7 C6         -1.8514   -0.2821    3.8295 C.2       1 <0>        -0.1162
      8 C7         -3.3419   -0.5155    3.8297 C.3       1 <0>        -0.0777
      9 C8         -3.6526   -1.7155    4.7294 C.3       1 <0>        -0.1660
     10 C9         -2.9777   -1.5506    6.0642 C.2       1 <0>         0.3859
     11 O1         -3.5430   -1.9334    7.0689 O.2       1 <0>        -0.4628
     12 C10        -1.7045   -0.9623    6.1709 C.2       1 <0>        -0.2224
     13 C11        -1.1268   -0.3819    5.0986 C.2       1 <0>        -0.0254
     14 C12         0.2702    0.1878    5.1484 C.3       1 <0>         0.0935
     15 O2          0.9175   -0.1495    3.9210 O.3       1 <0>        -0.3647
     16 C13         0.2914    0.2897    2.7265 C.3       1 <0>         0.1358
     17 H2          0.4718    1.3574    2.6023 H         1 <0>         0.0870
     18 C14         0.8916   -0.4446    1.5354 C.3       1 <0>        -0.0778
     19 H3          0.7637   -1.5226    1.6334 H         1 <0>         0.0893
     20 C15         2.3555   -0.0838    1.2474 C.3       1 <0>        -0.1087
     21 C16         2.5139   -0.4327   -0.2563 C.3       1 <0>        -0.1457
     22 C17         1.0947   -0.3716   -0.8712 C.3       1 <0>         0.2566
     23 C18         0.6897   -1.7031   -1.3507 C.1       1 <0>        -0.1497
     24 C19         0.3666   -2.7650   -1.7331 C.1       1 <0>        -0.1307
     25 C20        -0.0274   -4.0604   -2.1995 C.ar      1 <0>         0.0623
     26 C21        -1.1188   -4.7280   -1.6318 C.ar      1 <0>        -0.1522
     27 C22        -1.4635   -5.9743   -2.1117 C.ar      1 <0>         0.1051
     28 N1         -0.7802   -6.5363   -3.0906 N.ar      1 <0>        -0.4808
     29 C23         0.2546   -5.9418   -3.6534 C.ar      1 <0>         0.1048
     30 C24         0.6645   -4.6915   -3.2397 C.ar      1 <0>        -0.1529
     31 O3          1.0606    0.5725   -1.9434 O.3       1 <0>        -0.5338
     32 C25        -2.2215    1.6076    1.1190 C.ar      1 <0>        -0.1178
     33 C26        -2.6191    1.9888   -0.1494 C.ar      1 <0>        -0.0631
     34 C27        -2.8354    3.3225   -0.4354 C.ar      1 <0>        -0.1918
     35 C28        -2.6532    4.2815    0.5529 C.ar      1 <0>         0.2149
     36 C29        -2.2538    3.8951    1.8260 C.ar      1 <0>        -0.1955
     37 C30        -2.0446    2.5592    2.1067 C.ar      1 <0>        -0.0759
     38 N2         -2.8706    5.6313    0.2670 N.pl3     1 <0>        -0.6385
     39 C31        -3.4028    6.0268   -1.0393 C.3       1 <0>         0.0924
     40 C32        -2.5666    6.6514    1.2735 C.3       1 <0>         0.0885
     41 H4          1.1112    2.0220    0.1572 H         1 <0>         0.0514
     42 H5         -0.5418    1.9645   -0.5005 H         1 <0>         0.0767
     43 H6         -0.2831    1.9356    1.2603 H         1 <0>         0.0829
     44 H7         -1.7219   -0.2618   -0.6824 H         1 <0>         0.0799
     45 H8         -1.1819   -1.5764    0.3981 H         1 <0>         0.0700
     46 H9         -3.8503    0.3695    4.2123 H         1 <0>         0.0852
     47 H10        -3.6793   -0.7230    2.8142 H         1 <0>         0.0937
     48 H11        -4.7303   -1.7878    4.8759 H         1 <0>         0.0975
     49 H12        -3.2928   -2.6273    4.2527 H         1 <0>         0.1006
     50 H13        -1.1858   -0.9750    7.1181 H         1 <0>         0.1398
     51 H14         0.2242    1.2714    5.2567 H         1 <0>         0.0766
     52 H15         0.8168   -0.2455    5.9860 H         1 <0>         0.1186
     53 H16         2.5309    0.9786    1.4169 H         1 <0>         0.0769
     54 H17         3.0281   -0.6882    1.8560 H         1 <0>         0.0779
     55 H18         3.1639    0.2948   -0.7426 H         1 <0>         0.0859
     56 H19         2.9263   -1.4357   -0.3662 H         1 <0>         0.0750
     57 H20        -1.6822   -4.2744   -0.8298 H         1 <0>         0.1389
     58 H21        -2.3040   -6.4975   -1.6802 H         1 <0>         0.1624
     59 H22         0.7850   -6.4391   -4.4520 H         1 <0>         0.1624
     60 H23         1.5096   -4.2089   -3.7080 H         1 <0>         0.1390
     61 H24         1.6240    0.3367   -2.6931 H         1 <0>         0.3801
     62 H25        -2.7602    1.2427   -0.9174 H         1 <0>         0.1218
     63 H26        -3.1455    3.6195   -1.4263 H         1 <0>         0.1220
     64 H27        -2.1108    4.6383    2.5966 H         1 <0>         0.1220
     65 H28        -1.7384    2.2577    3.0975 H         1 <0>         0.1171
     66 H29        -4.4917    6.0484   -0.9967 H         1 <0>         0.0481
     67 H30        -3.0296    7.0175   -1.2988 H         1 <0>         0.0660
     68 H31        -3.0829    5.3088   -1.7945 H         1 <0>         0.0695
     69 H32        -2.2695    6.1669    2.2037 H         1 <0>         0.0774
     70 H33        -1.7528    7.2827    0.9167 H         1 <0>         0.0526
     71 H34        -3.4512    7.2636    1.4492 H         1 <0>         0.0554
@<TRIPOS>BOND
     1    1    2 1
     2    1   41 1
     3    1   42 1
     4    1   43 1
     5    2   18 1
     6    2   22 1
     7    2    3 1
     8    3    4 1
     9    3   44 1
    10    3   45 1
    11    4    5 1
    12    4    6 1
    13    4   32 1
    14    6   16 1
    15    6    7 2
    16    7   13 1
    17    7    8 1
    18    8    9 1
    19    8   46 1
    20    8   47 1
    21    9   10 1
    22    9   48 1
    23    9   49 1
    24   10   11 2
    25   10   12 1
    26   12   13 2
    27   12   50 1
    28   13   14 1
    29   14   15 1
    30   14   51 1
    31   14   52 1
    32   15   16 1
    33   16   17 1
    34   16   18 1
    35   18   19 1
    36   18   20 1
    37   20   21 1
    38   20   53 1
    39   20   54 1
    40   21   22 1
    41   21   55 1
    42   21   56 1
    43   22   23 1
    44   22   31 1
    45   23   24 3
    46   24   25 1
    47   25   30 ar
    48   25   26 ar
    49   26   27 ar
    50   26   57 1
    51   27   28 ar
    52   27   58 1
    53   28   29 ar
    54   29   30 ar
    55   29   59 1
    56   30   60 1
    57   31   61 1
    58   32   37 ar
    59   32   33 ar
    60   33   34 ar
    61   33   62 1
    62   34   35 ar
    63   34   63 1
    64   35   36 ar
    65   35   38 1
    66   36   37 ar
    67   36   64 1
    68   37   65 1
    69   38   39 1
    70   38   40 1
    71   39   66 1
    72   39   67 1
    73   39   68 1
    74   40   69 1
    75   40   70 1
    76   40   71 1
@<TRIPOS>MOLECULE
CHEMBL164695
   39    41     0     0     0
SMALL
USER_CHARGES

@<TRIPOS>ATOM
      1 C1         -0.0187    1.5258    0.0104 C.3       1 <0>        -0.1916
      2 C2          0.0021   -0.0041    0.0020 C.3       1 <0>         0.3262
      3 N1         -1.3740   -0.5232   -0.0306 N.pl3     1 <0>        -0.7675
      4 C3         -2.1159   -0.4088    1.1510 C.ar      1 <0>         0.2178
      5 C4         -3.4974   -0.2980    1.1073 C.ar      1 <0>        -0.1722
      6 C5         -4.2129   -0.1753    2.2800 C.ar      1 <0>        -0.0597
      7 C6         -3.5400   -0.1680    3.5005 C.ar      1 <0>        -0.1017
      8 C7         -2.1514   -0.2878    3.5369 C.ar      1 <0>        -0.0521
      9 C8         -1.4338   -0.4062    2.3621 C.ar      1 <0>        -0.1637
     10 C9          0.0635   -0.5374    2.4064 C.3       1 <0>         0.1772
     11 O1          0.6785   -0.5216    1.1334 O.3       1 <0>        -0.3833
     12 C10         0.4092   -1.8704    3.0958 C.3       1 <0>        -0.1431
     13 C11         0.6420    0.5967    3.2656 C.3       1 <0>        -0.1651
     14 C12        -4.3027   -0.0300    4.7656 C.ar      1 <0>         0.0047
     15 C13        -5.6887    0.0863    4.7340 C.ar      1 <0>        -0.0821
     16 C14        -6.3999    0.2158    5.9261 C.ar      1 <0>         0.0135
     17 C15        -5.7175    0.2280    7.1448 C.ar      1 <0>        -0.1156
     18 C16        -4.3402    0.1120    7.1686 C.ar      1 <0>         0.1129
     19 C17        -3.6318   -0.0225    5.9876 C.ar      1 <0>        -0.1280
     20 F1         -3.6839    0.1246    8.3495 F         1 <0>        -0.1295
     21 C18        -7.8266    0.3364    5.9012 C.1       1 <0>         0.2495
     22 N2         -8.9584    0.4321    5.8814 N.1       1 <0>        -0.3984
     23 H1          1.0039    1.9031    0.0027 H         1 <0>         0.0752
     24 H2         -0.5459    1.8868   -0.8726 H         1 <0>         0.0712
     25 H3         -0.5289    1.8773    0.9072 H         1 <0>         0.0608
     26 H4          0.5171   -0.3365   -0.9125 H         1 <0>         0.1159
     27 H5         -1.7482   -0.9218   -0.8280 H         1 <0>         0.4102
     28 H6         -4.0135   -0.3087    0.1586 H         1 <0>         0.1292
     29 H7         -5.2881   -0.0841    2.2519 H         1 <0>         0.1302
     30 H8         -1.6479   -0.2933    4.4923 H         1 <0>         0.1292
     31 H9         -0.0227   -2.6953    2.5290 H         1 <0>         0.0604
     32 H10         1.4920   -1.9870    3.1392 H         1 <0>         0.0679
     33 H11         0.0027   -1.8725    4.1072 H         1 <0>         0.0705
     34 H12         0.2380    0.5297    4.2757 H         1 <0>         0.0681
     35 H13         1.7278    0.5075    3.3019 H         1 <0>         0.0689
     36 H14         0.3709    1.5579    2.8289 H         1 <0>         0.0587
     37 H15        -6.2119    0.0767    3.7892 H         1 <0>         0.1428
     38 H16        -6.2664    0.3285    8.0694 H         1 <0>         0.1473
     39 H17        -2.5563   -0.1176    6.0123 H         1 <0>         0.1454
@<TRIPOS>BOND
     1    1    2 1
     2    1   23 1
     3    1   24 1
     4    1   25 1
     5    2   11 1
     6    2    3 1
     7    2   26 1
     8    3    4 1
     9    3   27 1
    10    4    9 ar
    11    4    5 ar
    12    5    6 ar
    13    5   28 1
    14    6    7 ar
    15    6   29 1
    16    7    8 ar
    17    7   14 1
    18    8    9 ar
    19    8   30 1
    20    9   10 1
    21   10   11 1
    22   10   12 1
    23   10   13 1
    24   12   31 1
    25   12   32 1
    26   12   33 1
    27   13   34 1
    28   13   35 1
    29   13   36 1
    30   14   19 ar
    31   14   15 ar
    32   15   16 ar
    33   15   37 1
    34   16   17 ar
    35   16   21 1
    36   17   18 ar
    37   17   38 1
    38   18   19 ar
    39   18   20 1
    40   19   39 1
    41   21   22 3
@<TRIPOS>MOLECULE
CHEMBL164695__1
   39    41     0     0     0
SMALL
USER_CHARGES

@<TRIPOS>ATOM
      1 C1         -0.0187    1.5258    0.0104 C.3       1 <0>        -0.1565
      2 C2          0.0021   -0.0041    0.0020 C.3       1 <0>         0.3082
      3 N1          0.7224   -0.4857   -1.1871 N.pl3     1 <0>        -0.7583
      4 C3          1.1705   -1.8118   -1.1903 C.ar      1 <0>         0.2313
      5 C4          1.6061   -2.3960   -2.3730 C.ar      1 <0>        -0.1850
      6 C5          2.0508   -3.7011   -2.3737 C.ar      1 <0>        -0.0527
      7 C6          2.0620   -4.4312   -1.1861 C.ar      1 <0>        -0.1116
      8 C7          1.6227   -3.8426   -0.0021 C.ar      1 <0>        -0.0457
      9 C8          1.1764   -2.5366   -0.0045 C.ar      1 <0>        -0.1782
     10 C9          0.6947   -1.9095    1.2778 C.3       1 <0>         0.1614
     11 O1          0.6940   -0.4861    1.1608 O.3       1 <0>        -0.3718
     12 C10        -0.7253   -2.3943    1.5770 C.3       1 <0>        -0.1727
     13 C11         1.6204   -2.3236    2.4235 C.3       1 <0>        -0.1370
     14 C12         2.5413   -5.8353   -1.1830 C.ar      1 <0>         0.0082
     15 C13         2.9850   -6.4222   -2.3638 C.ar      1 <0>        -0.0836
     16 C14         3.4342   -7.7420   -2.3547 C.ar      1 <0>         0.0136
     17 C15         3.4362   -8.4673   -1.1609 C.ar      1 <0>        -0.1172
     18 C16         2.9939   -7.8777    0.0086 C.ar      1 <0>         0.1130
     19 C17         2.5528   -6.5661    0.0041 C.ar      1 <0>        -0.1293
     20 F1          2.9971   -8.5828    1.1610 F         1 <0>        -0.1299
     21 C18         3.8919   -8.3528   -3.5663 C.1       1 <0>         0.2500
     22 N2          4.2550   -8.8373   -4.5275 N.1       1 <0>        -0.3992
     23 H1          1.0039    1.9031    0.0027 H         1 <0>         0.0721
     24 H2         -0.5459    1.8868   -0.8726 H         1 <0>         0.0781
     25 H3         -0.5289    1.8773    0.9072 H         1 <0>         0.0822
     26 H4         -1.0186   -0.3867   -0.0039 H         1 <0>         0.0706
     27 H5          0.8815    0.0976   -1.9456 H         1 <0>         0.4079
     28 H6          1.5961   -1.8282   -3.2916 H         1 <0>         0.1279
     29 H7          2.3900   -4.1567   -3.2923 H         1 <0>         0.1293
     30 H8          1.6315   -4.4083    0.9178 H         1 <0>         0.1298
     31 H9         -0.7246   -3.4795    1.6798 H         1 <0>         0.0721
     32 H10        -1.0758   -1.9418    2.5046 H         1 <0>         0.0701
     33 H11        -1.3870   -2.1071    0.7599 H         1 <0>         0.0578
     34 H12         2.6348   -1.9858    2.2112 H         1 <0>         0.0668
     35 H13         1.2737   -1.8709    3.3524 H         1 <0>         0.0693
     36 H14         1.6122   -3.4090    2.5230 H         1 <0>         0.0748
     37 H15         2.9812   -5.8575   -3.2844 H         1 <0>         0.1424
     38 H16         3.7834   -9.4900   -1.1516 H         1 <0>         0.1468
     39 H17         2.2129   -6.1089    0.9215 H         1 <0>         0.1449
@<TRIPOS>BOND
     1    1    2 1
     2    1   23 1
     3    1   24 1
     4    1   25 1
     5    2   11 1
     6    2    3 1
     7    2   26 1
     8    3    4 1
     9    3   27 1
    10    4    9 ar
    11    4    5 ar
    12    5    6 ar
    13    5   28 1
    14    6    7 ar
    15    6   29 1
    16    7    8 ar
    17    7   14 1
    18    8    9 ar
    19    8   30 1
    20    9   10 1
    21   10   11 1
    22   10   12 1
    23   10   13 1
    24   12   31 1
    25   12   32 1
    26   12   33 1
    27   13   34 1
    28   13   35 1
    29   13   36 1
    30   14   19 ar
    31   14   15 ar
    32   15   16 ar
    33   15   37 1
    34   16   17 ar
    35   16   21 1
    36   17   18 ar
    37   17   38 1
    38   18   19 ar
    39   18   20 1
    40   19   39 1
    41   21   22 3
@<TRIPOS>MOLECULE
CHEMBL397191
   69    74     0     0     0
SMALL
USER_CHARGES

@<TRIPOS>ATOM
      1 C1          0.1113    1.6111    0.2974 C.3       1 <0>        -0.1530
      2 C2          0.1783    0.0830    0.2624 C.3       1 <0>        -0.0354
      3 C3         -1.2257   -0.4962    0.2593 C.3       1 <0>        -0.0974
      4 C4         -1.9864    0.1513    1.4273 C.3       1 <0>        -0.0103
      5 H1         -2.9472   -0.3486    1.5504 H         1 <0>         0.0993
      6 C5         -1.1978    0.0370    2.7131 C.2       1 <0>        -0.0892
      7 C6         -1.8514   -0.2821    3.8295 C.2       1 <0>        -0.1180
      8 C7         -3.3419   -0.5155    3.8297 C.3       1 <0>        -0.0775
      9 C8         -3.6526   -1.7155    4.7294 C.3       1 <0>        -0.1660
     10 C9         -2.9777   -1.5506    6.0642 C.2       1 <0>         0.3862
     11 O1         -3.5430   -1.9334    7.0689 O.2       1 <0>        -0.4635
     12 C10        -1.7045   -0.9623    6.1709 C.2       1 <0>        -0.2237
     13 C11        -1.1268   -0.3819    5.0986 C.2       1 <0>        -0.0242
     14 C12         0.2702    0.1878    5.1484 C.3       1 <0>         0.0933
     15 O2          0.9175   -0.1495    3.9210 O.3       1 <0>        -0.3647
     16 C13         0.2914    0.2897    2.7265 C.3       1 <0>         0.1354
     17 H2          0.4718    1.3574    2.6023 H         1 <0>         0.0869
     18 C14         0.8916   -0.4446    1.5354 C.3       1 <0>        -0.0774
     19 H3          0.7637   -1.5226    1.6334 H         1 <0>         0.0890
     20 C15         2.3555   -0.0838    1.2474 C.3       1 <0>        -0.1085
     21 C16         2.5139   -0.4327   -0.2563 C.3       1 <0>        -0.1459
     22 C17         1.0947   -0.3716   -0.8712 C.3       1 <0>         0.2608
     23 C18         0.6897   -1.7031   -1.3507 C.1       1 <0>        -0.1774
     24 C19         0.3666   -2.7650   -1.7331 C.1       1 <0>        -0.1038
     25 C20        -0.0274   -4.0604   -2.1995 C.2       1 <0>        -0.0224
     26 C21        -1.1142   -4.7226   -1.6326 C.2       1 <0>        -0.1432
     27 C22        -1.4552   -5.9437   -2.1006 C.2       1 <0>        -0.1679
     28 S1         -0.2396   -6.2137   -3.3791 S.3       1 <0>         0.0637
     29 C23         0.6512   -4.6754   -3.2171 C.2       1 <0>        -0.1530
     30 O3          1.0606    0.5725   -1.9434 O.3       1 <0>        -0.5358
     31 C24        -2.2215    1.6076    1.1190 C.ar      1 <0>        -0.1169
     32 C25        -2.6191    1.9888   -0.1494 C.ar      1 <0>        -0.0629
     33 C26        -2.8354    3.3225   -0.4354 C.ar      1 <0>        -0.1918
     34 C27        -2.6532    4.2815    0.5529 C.ar      1 <0>         0.2144
     35 C28        -2.2538    3.8951    1.8260 C.ar      1 <0>        -0.1956
     36 C29        -2.0446    2.5592    2.1067 C.ar      1 <0>        -0.0761
     37 N1         -2.8706    5.6313    0.2670 N.pl3     1 <0>        -0.6386
     38 C30        -3.4028    6.0268   -1.0393 C.3       1 <0>         0.0925
     39 C31        -2.5666    6.6514    1.2735 C.3       1 <0>         0.0887
     40 H4          1.1112    2.0220    0.1572 H         1 <0>         0.0508
     41 H5         -0.5418    1.9645   -0.5005 H         1 <0>         0.0763
     42 H6         -0.2831    1.9356    1.2603 H         1 <0>         0.0820
     43 H7         -1.7219   -0.2618   -0.6824 H         1 <0>         0.0797
     44 H8         -1.1819   -1.5764    0.3981 H         1 <0>         0.0702
     45 H9         -3.8503    0.3695    4.2123 H         1 <0>         0.0849
     46 H10        -3.6793   -0.7230    2.8142 H         1 <0>         0.0936
     47 H11        -4.7303   -1.7878    4.8759 H         1 <0>         0.0972
     48 H12        -3.2928   -2.6273    4.2527 H         1 <0>         0.1004
     49 H13        -1.1858   -0.9750    7.1181 H         1 <0>         0.1396
     50 H14         0.2242    1.2714    5.2567 H         1 <0>         0.0765
     51 H15         0.8168   -0.2455    5.9860 H         1 <0>         0.1184
     52 H16         2.5309    0.9786    1.4169 H         1 <0>         0.0759
     53 H17         3.0281   -0.6882    1.8560 H         1 <0>         0.0768
     54 H18         3.1639    0.2948   -0.7426 H         1 <0>         0.0840
     55 H19         2.9263   -1.4357   -0.3662 H         1 <0>         0.0747
     56 H20        -1.6758   -4.2670   -0.8305 H         1 <0>         0.1376
     57 H21        -2.2584   -6.5914   -1.7818 H         1 <0>         0.1915
     58 H22         1.5052   -4.3222   -3.7759 H         1 <0>         0.1897
     59 H23         1.6240    0.3367   -2.6931 H         1 <0>         0.3791
     60 H24        -2.7602    1.2427   -0.9174 H         1 <0>         0.1221
     61 H25        -3.1455    3.6195   -1.4263 H         1 <0>         0.1219
     62 H26        -2.1108    4.6383    2.5966 H         1 <0>         0.1218
     63 H27        -1.7384    2.2577    3.0975 H         1 <0>         0.1169
     64 H28        -4.4917    6.0484   -0.9967 H         1 <0>         0.0479
     65 H29        -3.0296    7.0175   -1.2988 H         1 <0>         0.0658
     66 H30        -3.0829    5.3088   -1.7945 H         1 <0>         0.0695
     67 H31        -2.2695    6.1669    2.2037 H         1 <0>         0.0774
     68 H32        -1.7528    7.2827    0.9167 H         1 <0>         0.0524
     69 H33        -3.4512    7.2636    1.4492 H         1 <0>         0.0552
@<TRIPOS>BOND
     1    1    2 1
     2    1   40 1
     3    1   41 1
     4    1   42 1
     5    2   18 1
     6    2   22 1
     7    2    3 1
     8    3    4 1
     9    3   43 1
    10    3   44 1
    11    4    5 1
    12    4    6 1
    13    4   31 1
    14    6   16 1
    15    6    7 2
    16    7   13 1
    17    7    8 1
    18    8    9 1
    19    8   45 1
    20    8   46 1
    21    9   10 1
    22    9   47 1
    23    9   48 1
    24   10   11 2
    25   10   12 1
    26   12   13 2
    27   12   49 1
    28   13   14 1
    29   14   15 1
    30   14   50 1
    31   14   51 1
    32   15   16 1
    33   16   17 1
    34   16   18 1
    35   18   19 1
    36   18   20 1
    37   20   21 1
    38   20   52 1
    39   20   53 1
    40   21   22 1
    41   21   54 1
    42   21   55 1
    43   22   23 1
    44   22   30 1
    45   23   24 3
    46   24   25 1
    47   25   29 2
    48   25   26 1
    49   26   27 2
    50   26   56 1
    51   27   28 1
    52   27   57 1
    53   28   29 1
    54   29   58 1
    55   30   59 1
    56   31   36 ar
    57   31   32 ar
    58   32   33 ar
    59   32   60 1
    60   33   34 ar
    61   33   61 1
    62   34   35 ar
    63   34   37 1
    64   35   36 ar
    65   35   62 1
    66   36   63 1
    67   37   38 1
    68   37   39 1
    69   38   64 1
    70   38   65 1
    71   38   66 1
    72   39   67 1
    73   39   68 1
    74   39   69 1
@<TRIPOS>MOLECULE
CHEMBL488560
   48    51     0     0     0
SMALL
USER_CHARGES

@<TRIPOS>ATOM
      1 C1          0.4275    1.6569   -0.0938 C.3       1 <0>        -0.1582
      2 C2          0.1693    0.1515   -0.0037 C.3       1 <0>        -0.1323
      3 C3         -1.3373   -0.1040    0.0714 C.3       1 <0>        -0.1544
      4 C4          0.7426   -0.5393   -1.2426 C.3       1 <0>         0.2581
      5 C5          0.2160   -1.9403   -1.2871 C.ar      1 <0>        -0.1137
      6 C6         -0.9403   -2.1318   -2.0363 C.ar      1 <0>        -0.0698
      7 C7         -1.5212   -3.3867   -2.1544 C.ar      1 <0>        -0.0598
      8 C8         -0.9317   -4.4732   -1.5091 C.ar      1 <0>        -0.0658
      9 C9          0.2072   -4.2837   -0.7697 C.ar      1 <0>        -0.1418
     10 C10         0.7993   -3.0141   -0.6441 C.ar      1 <0>         0.1573
     11 N1          1.9325   -2.9722    0.1355 N.pl3     1 <0>        -0.5673
     12 C11         2.8479   -2.0746    0.3863 C.2       1 <0>         0.2389
     13 S1          4.1579   -2.5762    1.1539 S.2       1 <0>        -0.4225
     14 C12         2.7919   -0.6296    0.0271 C.3       1 <0>         0.0752
     15 O1          2.1342   -0.4290   -1.2030 O.3       1 <0>        -0.3428
     16 C13        -2.7552   -3.5700   -2.9574 C.ar      1 <0>        -0.0091
     17 C14        -3.3346   -4.8302   -3.0661 C.ar      1 <0>        -0.0738
     18 C15        -4.4945   -4.9960   -3.8217 C.ar      1 <0>         0.0138
     19 C16        -5.0681   -3.8968   -4.4650 C.ar      1 <0>        -0.1066
     20 C17        -4.4869   -2.6475   -4.3526 C.ar      1 <0>         0.1135
     21 C18        -3.3387   -2.4785   -3.5991 C.ar      1 <0>        -0.1210
     22 F1         -5.0449   -1.5869   -4.9764 F         1 <0>        -0.1266
     23 C19        -5.0961   -6.2902   -3.9384 C.1       1 <0>         0.2474
     24 N2         -5.5733   -7.3170   -4.0310 N.1       1 <0>        -0.3934
     25 C20         0.2435    0.1902   -2.4632 C.2       1 <0>        -0.1520
     26 C21         0.8682    0.3987   -3.6479 C.2       1 <0>        -0.1149
     27 C22         0.2099    1.1037   -4.6380 C.2       1 <0>        -0.1583
     28 C23        -1.0410    1.5657   -4.3949 C.2       1 <0>        -0.1766
     29 S2         -1.3270    0.9972   -2.7268 S.3       1 <0>         0.0585
     30 H1          1.5009    1.8389   -0.1473 H         1 <0>         0.0630
     31 H2         -0.0535    2.0552   -0.9871 H         1 <0>         0.0729
     32 H3          0.0191    2.1490    0.7889 H         1 <0>         0.0660
     33 H4          0.6503   -0.2468    0.8897 H         1 <0>         0.0829
     34 H5         -1.8329    0.3982   -0.7595 H         1 <0>         0.0654
     35 H6         -1.5275   -1.1757    0.0138 H         1 <0>         0.0680
     36 H7         -1.7251    0.2837    1.0135 H         1 <0>         0.0710
     37 H8         -1.3945   -1.2884   -2.5350 H         1 <0>         0.1448
     38 H9         -1.3694   -5.4571   -1.5909 H         1 <0>         0.1428
     39 H10         0.6600   -5.1287   -0.2722 H         1 <0>         0.1400
     40 H11         2.0876   -3.8037    0.6104 H         1 <0>         0.4152
     41 H12         2.2583   -0.0886    0.8086 H         1 <0>         0.1044
     42 H13         3.8076   -0.2405   -0.0441 H         1 <0>         0.1561
     43 H14        -2.8873   -5.6771   -2.5672 H         1 <0>         0.1453
     44 H15        -5.9664   -4.0231   -5.0512 H         1 <0>         0.1503
     45 H16        -2.8914   -1.4995   -3.5110 H         1 <0>         0.1456
     46 H17         1.8656    0.0199   -3.8157 H         1 <0>         0.1391
     47 H18         0.6852    1.2840   -5.5908 H         1 <0>         0.1371
     48 H19        -1.6963    2.1283   -5.0434 H         1 <0>         0.1881
@<TRIPOS>BOND
     1    1    2 1
     2    1   30 1
     3    1   31 1
     4    1   32 1
     5    2    3 1
     6    2    4 1
     7    2   33 1
     8    3   34 1
     9    3   35 1
    10    3   36 1
    11    4   15 1
    12    4    5 1
    13    4   25 1
    14    5   10 ar
    15    5    6 ar
    16    6    7 ar
    17    6   37 1
    18    7    8 ar
    19    7   16 1
    20    8    9 ar
    21    8   38 1
    22    9   10 ar
    23    9   39 1
    24   10   11 1
    25   11   12 1
    26   11   40 1
    27   12   13 2
    28   12   14 1
    29   14   15 1
    30   14   41 1
    31   14   42 1
    32   16   21 ar
    33   16   17 ar
    34   17   18 ar
    35   17   43 1
    36   18   19 ar
    37   18   23 1
    38   19   20 ar
    39   19   44 1
    40   20   21 ar
    41   20   22 1
    42   21   45 1
    43   23   24 3
    44   25   29 1
    45   25   26 2
    46   26   27 1
    47   26   46 1
    48   27   28 2
    49   27   47 1
    50   28   29 1
    51   28   48 1
@<TRIPOS>MOLECULE
CHEMBL488560__1
   48    51     0     0     0
SMALL
USER_CHARGES

@<TRIPOS>ATOM
      1 C1          0.6438   -0.3572    1.1001 C.3       1 <0>        -0.1508
      2 C2         -0.0922    0.2006   -0.1197 C.3       1 <0>        -0.1323
      3 C3          0.0093    1.7273   -0.1226 C.3       1 <0>        -0.1580
      4 C4          0.5421   -0.3551   -1.3963 C.3       1 <0>         0.2583
      5 C5          0.7085   -1.8343   -1.2344 C.ar      1 <0>        -0.1137
      6 C6          1.9413   -2.2580   -0.7490 C.ar      1 <0>        -0.0706
      7 C7          2.2152   -3.6053   -0.5592 C.ar      1 <0>        -0.0595
      8 C8          1.2341   -4.5486   -0.8624 C.ar      1 <0>        -0.0659
      9 C9          0.0187   -4.1305   -1.3396 C.ar      1 <0>        -0.1418
     10 C10        -0.2658   -2.7666   -1.5318 C.ar      1 <0>         0.1571
     11 N1         -1.5281   -2.4941   -2.0071 N.pl3     1 <0>        -0.5673
     12 C11        -2.1358   -1.4280   -2.4551 C.2       1 <0>         0.2388
     13 S1         -3.5472   -1.6509   -3.1728 S.2       1 <0>        -0.4226
     14 C12        -1.6435   -0.0246   -2.3629 C.3       1 <0>         0.0753
     15 O1         -0.2408    0.0389   -2.4836 O.3       1 <0>        -0.3430
     16 C13         3.5365   -4.0368   -0.0403 C.ar      1 <0>        -0.0091
     17 C14         3.8051   -5.3897    0.1417 C.ar      1 <0>        -0.0738
     18 C15         5.0487   -5.7891    0.6292 C.ar      1 <0>         0.0138
     19 C16         6.0175   -4.8294    0.9320 C.ar      1 <0>        -0.1066
     20 C17         5.7436   -3.4869    0.7487 C.ar      1 <0>         0.1135
     21 C18         4.5121   -3.0875    0.2600 C.ar      1 <0>        -0.1211
     22 F1          6.6833   -2.5619    1.0427 F         1 <0>        -0.1266
     23 C19         5.3321   -7.1798    0.8194 C.1       1 <0>         0.2474
     24 N2          5.5569   -8.2831    0.9704 N.1       1 <0>        -0.3934
     25 C20         1.9099    0.2586   -1.5496 C.2       1 <0>        -0.1525
     26 C21         2.5605    0.6218   -2.6819 C.2       1 <0>        -0.1146
     27 C22         3.8240    1.1733   -2.5814 C.2       1 <0>        -0.1583
     28 C23         4.3751    1.3345   -1.3536 C.2       1 <0>        -0.1773
     29 S2          3.0906    0.7031   -0.2865 S.3       1 <0>         0.0586
     30 H1          0.5675   -1.4445    1.1047 H         1 <0>         0.0665
     31 H2          1.6935   -0.0668    1.0552 H         1 <0>         0.0639
     32 H3          0.1949    0.0424    2.0095 H         1 <0>         0.0716
     33 H4         -1.1409   -0.0936   -0.0772 H         1 <0>         0.0831
     34 H5          1.0564    2.0218   -0.0523 H         1 <0>         0.0722
     35 H6         -0.4168    2.1180   -1.0466 H         1 <0>         0.0643
     36 H7         -0.5392    2.1295    0.7291 H         1 <0>         0.0655
     37 H8          2.6995   -1.5251   -0.5158 H         1 <0>         0.1450
     38 H9          1.4303   -5.6014   -0.7227 H         1 <0>         0.1427
     39 H10        -0.7376   -4.8653   -1.5732 H         1 <0>         0.1400
     40 H11        -2.1008   -3.2770   -2.0105 H         1 <0>         0.4152
     41 H12        -2.0968    0.5651   -3.1596 H         1 <0>         0.1561
     42 H13        -1.9374    0.3935   -1.4002 H         1 <0>         0.1044
     43 H14         3.0527   -6.1280   -0.0935 H         1 <0>         0.1454
     44 H15         6.9814   -5.1366    1.3100 H         1 <0>         0.1503
     45 H16         4.3051   -2.0375    0.1145 H         1 <0>         0.1457
     46 H17         2.0987    0.4821   -3.6481 H         1 <0>         0.1392
     47 H18         4.3642    1.4709   -3.4680 H         1 <0>         0.1370
     48 H19         5.3394    1.7428   -1.0892 H         1 <0>         0.1880
@<TRIPOS>BOND
     1    1    2 1
     2    1   30 1
     3    1   31 1
     4    1   32 1
     5    2    3 1
     6    2    4 1
     7    2   33 1
     8    3   34 1
     9    3   35 1
    10    3   36 1
    11    4   15 1
    12    4    5 1
    13    4   25 1
    14    5   10 ar
    15    5    6 ar
    16    6    7 ar
    17    6   37 1
    18    7    8 ar
    19    7   16 1
    20    8    9 ar
    21    8   38 1
    22    9   10 ar
    23    9   39 1
    24   10   11 1
    25   11   12 1
    26   11   40 1
    27   12   13 2
    28   12   14 1
    29   14   15 1
    30   14   41 1
    31   14   42 1
    32   16   21 ar
    33   16   17 ar
    34   17   18 ar
    35   17   43 1
    36   18   19 ar
    37   18   23 1
    38   19   20 ar
    39   19   44 1
    40   20   21 ar
    41   20   22 1
    42   21   45 1
    43   23   24 3
    44   25   29 1
    45   25   26 2
    46   26   27 1
    47   26   46 1
    48   27   28 2
    49   27   47 1
    50   28   29 1
    51   28   48 1
@<TRIPOS>MOLECULE
CHEMBL1209295
   36    38     0     0     0
SMALL
USER_CHARGES

@<TRIPOS>ATOM
      1 C1          2.1082   -2.1998    1.2851 C.3       1 <0>         0.0546
      2 N1          1.1571   -1.3819    0.5284 N.pl3     1 <0>        -0.4128
      3 C2          1.0103   -1.3798   -0.8377 C.2       1 <0>         0.0623
      4 C3          0.0156   -0.4777   -1.1601 C.2       1 <0>        -0.1104
      5 C4         -0.4488    0.0769    0.0316 C.2       1 <0>        -0.1678
      6 C5          0.2628   -0.4970    1.0639 C.2       1 <0>         0.0793
      7 C6          0.0909   -0.2039    2.4999 C.ar      1 <0>         0.0099
      8 C7         -0.5072    0.9945    2.9021 C.ar      1 <0>        -0.1043
      9 C8         -0.6664    1.2660    4.2309 C.ar      1 <0>        -0.0543
     10 C9         -0.2315    0.3449    5.1899 C.ar      1 <0>        -0.1569
     11 C10         0.3665   -0.8541    4.7872 C.ar      1 <0>        -0.0728
     12 C11         0.5210   -1.1272    3.4582 C.ar      1 <0>        -0.1387
     13 C12        -0.4028    0.6381    6.6255 C.2       1 <0>         0.4375
     14 O1         -1.2858    1.3897    6.9913 O.2       1 <0>        -0.4429
     15 C13         0.4985    0.0183    7.6189 C.ar      1 <0>        -0.1622
     16 C14         1.7335   -0.4979    7.2198 C.ar      1 <0>        -0.0818
     17 C15         2.5701   -1.0746    8.1525 C.ar      1 <0>        -0.1316
     18 C16         2.1882   -1.1429    9.4809 C.ar      1 <0>        -0.0881
     19 C17         0.9660   -0.6334    9.8833 C.ar      1 <0>        -0.1294
     20 C18         0.1220   -0.0488    8.9623 C.ar      1 <0>        -0.0618
     21 C19         1.7585   -2.1739   -1.7652 C.1       1 <0>         0.2754
     22 N2          2.3519   -2.8039   -2.5010 N.1       1 <0>        -0.4003
     23 H1          1.6119   -3.1058    1.6330 H         1 <0>         0.0870
     24 H2          2.9472   -2.4688    0.6433 H         1 <0>         0.0890
     25 H3          2.4732   -1.6335    2.1419 H         1 <0>         0.0988
     26 H4         -0.3374   -0.2441   -2.1537 H         1 <0>         0.1558
     27 H5         -1.2278    0.8185    0.1289 H         1 <0>         0.1552
     28 H6         -0.8429    1.7055    2.1618 H         1 <0>         0.1400
     29 H7         -1.1277    2.1918    4.5415 H         1 <0>         0.1392
     30 H8          0.7026   -1.5652    5.5273 H         1 <0>         0.1393
     31 H9          0.9791   -2.0545    3.1472 H         1 <0>         0.1335
     32 H10         2.0325   -0.4460    6.1833 H         1 <0>         0.1356
     33 H11         3.5253   -1.4742    7.8453 H         1 <0>         0.1303
     34 H12         2.8468   -1.5961   10.2069 H         1 <0>         0.1288
     35 H13         0.6741   -0.6902   10.9215 H         1 <0>         0.1311
     36 H14        -0.8297    0.3522    9.2783 H         1 <0>         0.1338
@<TRIPOS>BOND
     1    1    2 1
     2    1   23 1
     3    1   24 1
     4    1   25 1
     5    2    6 1
     6    2    3 1
     7    3    4 2
     8    3   21 1
     9    4    5 1
    10    4   26 1
    11    5    6 2
    12    5   27 1
    13    6    7 1
    14    7   12 ar
    15    7    8 ar
    16    8    9 ar
    17    8   28 1
    18    9   10 ar
    19    9   29 1
    20   10   11 ar
    21   10   13 1
    22   11   12 ar
    23   11   30 1
    24   12   31 1
    25   13   14 2
    26   13   15 1
    27   15   20 ar
    28   15   16 ar
    29   16   17 ar
    30   16   32 1
    31   17   18 ar
    32   17   33 1
    33   18   19 ar
    34   18   34 1
    35   19   20 ar
    36   19   35 1
    37   20   36 1
    38   21   22 3
@<TRIPOS>MOLECULE
CHEMBL51933
   46    47     0     0     0
SMALL
USER_CHARGES

@<TRIPOS>ATOM
      1 C1          0.7428    1.3720   -0.0035 C.3       1 <0>        -0.1460
      2 C2          0.6817   -0.1564    0.0315 C.3       1 <0>        -0.0831
      3 H1          1.2954   -0.5644   -0.7717 H         1 <0>         0.0751
      4 C3         -0.7649   -0.6143   -0.1476 C.3       1 <0>        -0.0819
      5 C4         -1.6090   -0.2185    1.0270 C.2       1 <0>        -0.1219
      6 C5         -1.1101    0.0471    2.2215 C.2       1 <0>        -0.1145
      7 C6          0.3439   -0.0271    2.4608 C.2       1 <0>        -0.0768
      8 C7          0.8816    0.4455    3.5802 C.2       1 <0>        -0.1682
      9 C8          1.2047   -0.6605    1.3843 C.3       1 <0>        -0.0410
     10 H2          2.2449   -0.3620    1.5145 H         1 <0>         0.0802
     11 C9          1.0862   -2.1844    1.4534 C.3       1 <0>        -0.0743
     12 C10         1.7134   -2.6795    2.7311 C.ar      1 <0>        -0.0215
     13 C11         3.0275   -3.1059    2.7354 C.ar      1 <0>        -0.1913
     14 C12         3.6050   -3.5612    3.9109 C.ar      1 <0>         0.1634
     15 C13         2.8626   -3.5885    5.0836 C.ar      1 <0>        -0.1190
     16 C14         1.5485   -3.1620    5.0790 C.ar      1 <0>        -0.0531
     17 C15         0.9730   -2.7017    3.9036 C.ar      1 <0>         0.0654
     18 O1         -0.3189   -2.2770    3.9000 O.3       1 <0>        -0.2749
     19 C16        -1.2713   -3.1592    3.5585 C.2       1 <0>         0.4547
     20 O2         -0.9632   -4.2635    3.1771 O.2       1 <0>        -0.4973
     21 C17        -2.7249   -2.7723    3.6509 C.3       1 <0>        -0.1477
     22 Br1         3.6496   -4.2098    6.6869 Br        1 <0>        -0.0253
     23 O3          4.8983   -3.9812    3.9149 O.3       1 <0>        -0.2994
     24 C18         5.6021   -3.9261    2.6725 C.3       1 <0>         0.0229
     25 C19        -3.1004   -0.1182    0.8356 C.3       1 <0>        -0.1227
     26 H3          1.7748    1.6974    0.1275 H         1 <0>         0.0528
     27 H4          0.3684    1.7287   -0.9630 H         1 <0>         0.0541
     28 H5          0.1288    1.7787    0.8000 H         1 <0>         0.0626
     29 H6         -1.1739   -0.1606   -1.0504 H         1 <0>         0.0732
     30 H7         -0.7857   -1.6989   -0.2532 H         1 <0>         0.0727
     31 H8         -1.7724    0.3203    3.0296 H         1 <0>         0.1138
     32 H9          0.2518    0.8936    4.3345 H         1 <0>         0.0997
     33 H10         1.9484    0.3814    3.7358 H         1 <0>         0.0944
     34 H11         0.0341   -2.4684    1.4312 H         1 <0>         0.0790
     35 H12         1.6003   -2.6278    0.6007 H         1 <0>         0.0805
     36 H13         3.6049   -3.0850    1.8230 H         1 <0>         0.1437
     37 H14         0.9706   -3.1834    5.9911 H         1 <0>         0.1452
     38 H15        -3.0456   -2.3362    2.7049 H         1 <0>         0.1061
     39 H16        -3.3237   -3.6577    3.8644 H         1 <0>         0.1055
     40 H17        -2.8566   -2.0431    4.4503 H         1 <0>         0.0965
     41 H18         5.0934   -4.5512    1.9387 H         1 <0>         0.0595
     42 H19         5.6297   -2.8964    2.3160 H         1 <0>         0.0595
     43 H20         6.6201   -4.2886    2.8153 H         1 <0>         0.1068
     44 H21        -3.5600   -1.0829    1.0507 H         1 <0>         0.0646
     45 H22        -3.5037    0.6353    1.5121 H         1 <0>         0.0646
     46 H23        -3.3162    0.1655   -0.1945 H         1 <0>         0.0634
@<TRIPOS>BOND
     1    1    2 1
     2    1   26 1
     3    1   27 1
     4    1   28 1
     5    2    3 1
     6    2    9 1
     7    2    4 1
     8    4    5 1
     9    4   29 1
    10    4   30 1
    11    5    6 2
    12    5   25 1
    13    6    7 1
    14    6   31 1
    15    7    8 2
    16    7    9 1
    17    8   32 1
    18    8   33 1
    19    9   10 1
    20    9   11 1
    21   11   12 1
    22   11   34 1
    23   11   35 1
    24   12   17 ar
    25   12   13 ar
    26   13   14 ar
    27   13   36 1
    28   14   15 ar
    29   14   23 1
    30   15   16 ar
    31   15   22 1
    32   16   17 ar
    33   16   37 1
    34   17   18 1
    35   18   19 1
    36   19   20 2
    37   19   21 1
    38   21   38 1
    39   21   39 1
    40   21   40 1
    41   23   24 1
    42   24   41 1
    43   24   42 1
    44   24   43 1
    45   25   44 1
    46   25   45 1
    47   25   46 1
@<TRIPOS>MOLECULE
CHEMBL336169
   48    52     0     0     0
SMALL
USER_CHARGES

@<TRIPOS>ATOM
      1 C1         -0.0184    1.5050    0.0103 C.3       1 <0>        -0.1193
      2 C2          0.0021   -0.0041    0.0020 C.2       1 <0>        -0.0627
      3 C3          0.0012   -0.5990   -1.1897 C.2       1 <0>        -0.1632
      4 C4         -0.0627   -2.0882   -1.3594 C.3       1 <0>         0.2130
      5 N1          0.3265   -2.7742   -0.1292 N.pl3     1 <0>        -0.7339
      6 C5          0.0884   -2.2024    1.1150 C.ar      1 <0>         0.2261
      7 C6          0.0246   -0.7944    1.2385 C.ar      1 <0>        -0.0643
      8 C7          0.0552   -0.2661    2.5212 C.ar      1 <0>        -0.0255
      9 C8         -0.3511   -1.0914    3.6136 C.ar      1 <0>        -0.0931
     10 C9         -0.3828   -2.4639    3.4593 C.ar      1 <0>        -0.0510
     11 C10        -0.1056   -3.0139    2.2216 C.ar      1 <0>        -0.1787
     12 C11        -0.7301   -0.4121    4.8702 C.ar      1 <0>        -0.0659
     13 C12        -1.1410   -1.1437    5.9816 C.ar      1 <0>        -0.1174
     14 C13        -1.4930   -0.4884    7.1468 C.ar      1 <0>         0.0802
     15 C14        -1.4393    0.8951    7.2099 C.ar      1 <0>        -0.1221
     16 C15        -1.0307    1.6306    6.1144 C.ar      1 <0>        -0.1017
     17 C16        -0.6690    0.9869    4.9423 C.ar      1 <0>         0.1082
     18 O1         -0.2417    1.7129    3.8722 O.3       1 <0>        -0.2308
     19 C17         0.5287    1.0520    2.9560 C.2       1 <0>         0.1086
     20 C18         1.7163    1.5722    2.5534 C.2       1 <0>        -0.0847
     21 C19         2.1327    2.8935    3.0226 C.2       1 <0>         0.0207
     22 C20         3.2943    3.5339    2.6925 C.2       1 <0>        -0.1896
     23 C21         3.2802    4.7702    3.3661 C.2       1 <0>        -0.2141
     24 C22         2.1295    4.8278    4.0658 C.2       1 <0>        -0.0342
     25 O2          1.4356    3.6957    3.8521 O.3       1 <0>        -0.1562
     26 F1         -1.8876   -1.1973    8.2271 F         1 <0>        -0.1361
     27 C23         0.8804   -2.5062   -2.4940 C.3       1 <0>        -0.1548
     28 C24        -1.4933   -2.4955   -1.7316 C.3       1 <0>        -0.1607
     29 H1          1.0042    1.8823    0.0026 H         1 <0>         0.0727
     30 H2         -0.5456    1.8661   -0.8727 H         1 <0>         0.0689
     31 H3         -0.5286    1.8566    0.9071 H         1 <0>         0.0681
     32 H4          0.0512    0.0273   -2.0747 H         1 <0>         0.1285
     33 H5          0.7570   -3.6521   -0.1815 H         1 <0>         0.4055
     34 H6         -0.6213   -3.1044    4.2947 H         1 <0>         0.1339
     35 H7         -0.0431   -4.0874    2.1137 H         1 <0>         0.1310
     36 H8         -1.1811   -2.2223    5.9368 H         1 <0>         0.1428
     37 H9         -1.7146    1.4017    8.1240 H         1 <0>         0.1462
     38 H10        -0.9925    2.7081    6.1729 H         1 <0>         0.1466
     39 H11         2.3536    1.0104    1.8865 H         1 <0>         0.1675
     40 H12         4.0722    3.1633    2.0414 H         1 <0>         0.1503
     41 H13         4.0473    5.5296    3.3292 H         1 <0>         0.1501
     42 H14         1.8146    5.6498    4.6916 H         1 <0>         0.2032
     43 H15         1.8997   -2.2091   -2.2473 H         1 <0>         0.0636
     44 H16         0.8381   -3.5878   -2.6219 H         1 <0>         0.0636
     45 H17         0.5738   -2.0187   -3.4195 H         1 <0>         0.0744
     46 H18        -1.7782   -2.0095   -2.6648 H         1 <0>         0.0674
     47 H19        -1.5425   -3.5773   -1.8555 H         1 <0>         0.0617
     48 H20        -2.1761   -2.1891   -0.9392 H         1 <0>         0.0572
@<TRIPOS>BOND
     1    1    2 1
     2    1   29 1
     3    1   30 1
     4    1   31 1
     5    2    7 1
     6    2    3 2
     7    3    4 1
     8    3   32 1
     9    4    5 1
    10    4   27 1
    11    4   28 1
    12    5    6 1
    13    5   33 1
    14    6   11 ar
    15    6    7 ar
    16    7    8 ar
    17    8   19 1
    18    8    9 ar
    19    9   10 ar
    20    9   12 1
    21   10   11 ar
    22   10   34 1
    23   11   35 1
    24   12   17 ar
    25   12   13 ar
    26   13   14 ar
    27   13   36 1
    28   14   15 ar
    29   14   26 1
    30   15   16 ar
    31   15   37 1
    32   16   17 ar
    33   16   38 1
    34   17   18 1
    35   18   19 1
    36   19   20 2
    37   20   21 1
    38   20   39 1
    39   21   25 1
    40   21   22 2
    41   22   23 1
    42   22   40 1
    43   23   24 2
    44   23   41 1
    45   24   25 1
    46   24   42 1
    47   27   43 1
    48   27   44 1
    49   27   45 1
    50   28   46 1
    51   28   47 1
    52   28   48 1
@<TRIPOS>MOLECULE
CHEMBL188220
   42    44     0     0     0
SMALL
USER_CHARGES

@<TRIPOS>ATOM
      1 C1         -0.0187    1.5258    0.0104 C.3       1 <0>        -0.1543
      2 C2          0.0021   -0.0041    0.0020 C.3       1 <0>        -0.1243
      3 C3          0.7421   -0.5109    1.2415 C.3       1 <0>        -0.1170
      4 C4          0.7628   -2.0407    1.2331 C.3       1 <0>        -0.1387
      5 C5          1.5028   -2.5476    2.4727 C.3       1 <0>         0.1290
      6 N1          1.5227   -4.0124    2.4646 N.am      1 <0>        -0.5362
      7 C6          0.5581   -4.8443    3.0294 C.ar      1 <0>         0.0964
      8 C7         -0.6190   -4.6011    3.7164 C.ar      1 <0>        -0.0884
      9 C8         -1.3884   -5.6696    4.1686 C.ar      1 <0>        -0.0438
     10 C9         -0.9727   -6.9799    3.9293 C.ar      1 <0>        -0.0926
     11 C10         0.1997   -7.2206    3.2455 C.ar      1 <0>        -0.0995
     12 C11         0.9697   -6.1584    2.7924 C.ar      1 <0>         0.0993
     13 N2          2.1707   -6.0831    2.0916 N.am      1 <0>        -0.6424
     14 C12         2.4731   -4.7846    1.9052 C.2       1 <0>         0.6818
     15 O1          3.4579   -4.3714    1.3220 O.2       1 <0>        -0.5483
     16 C13        -2.6507   -5.4150    4.9059 C.ar      1 <0>        -0.0048
     17 C14        -3.4173   -6.4820    5.3633 C.ar      1 <0>        -0.0743
     18 C15        -4.6021   -6.2365    6.0558 C.ar      1 <0>         0.0130
     19 C16        -5.0127   -4.9214    6.2865 C.ar      1 <0>        -0.1091
     20 C17        -4.2459   -3.8661    5.8291 C.ar      1 <0>         0.1116
     21 C18        -3.0667   -4.1064    5.1460 C.ar      1 <0>        -0.1208
     22 F1         -4.6465   -2.5956    6.0542 F         1 <0>        -0.1284
     23 C19        -5.3966   -7.3299    6.5292 C.1       1 <0>         0.2481
     24 N3         -6.0268   -8.1972    6.9047 N.1       1 <0>        -0.3956
     25 H1          1.0039    1.9031    0.0027 H         1 <0>         0.0545
     26 H2         -0.5459    1.8868   -0.8726 H         1 <0>         0.0547
     27 H3         -0.5289    1.8773    0.9072 H         1 <0>         0.0544
     28 H4         -1.0205   -0.3814    0.0098 H         1 <0>         0.0618
     29 H5          0.5123   -0.3556   -0.8948 H         1 <0>         0.0618
     30 H6          1.7647   -0.1336    1.2338 H         1 <0>         0.0669
     31 H7          0.2319   -0.1594    2.1383 H         1 <0>         0.0660
     32 H8         -0.2598   -2.4180    1.2409 H         1 <0>         0.0690
     33 H9          1.2730   -2.3923    0.3363 H         1 <0>         0.0708
     34 H10         2.5254   -2.1703    2.4649 H         1 <0>         0.0963
     35 H11         0.9926   -2.1961    3.3695 H         1 <0>         0.0913
     36 H12        -0.9391   -3.5863    3.9011 H         1 <0>         0.1357
     37 H13        -1.5709   -7.8075    4.2809 H         1 <0>         0.1401
     38 H14         0.5193   -8.2359    3.0624 H         1 <0>         0.1381
     39 H15        -3.0959   -7.4970    5.1822 H         1 <0>         0.1460
     40 H16        -5.9304   -4.7289    6.8225 H         1 <0>         0.1486
     41 H17        -2.4692   -3.2782    4.7947 H         1 <0>         0.1468
     42 H18         2.6978   -6.8379    1.7864 H         1 <0>         0.4367
@<TRIPOS>BOND
     1    1    2 1
     2    1   25 1
     3    1   26 1
     4    1   27 1
     5    2    3 1
     6    2   28 1
     7    2   29 1
     8    3    4 1
     9    3   30 1
    10    3   31 1
    11    4    5 1
    12    4   32 1
    13    4   33 1
    14    5    6 1
    15    5   34 1
    16    5   35 1
    17    6   14 am
    18    6    7 1
    19    7   12 ar
    20    7    8 ar
    21    8    9 ar
    22    8   36 1
    23    9   10 ar
    24    9   16 1
    25   10   11 ar
    26   10   37 1
    27   11   12 ar
    28   11   38 1
    29   12   13 1
    30   13   14 am
    31   13   42 1
    32   14   15 2
    33   16   21 ar
    34   16   17 ar
    35   17   18 ar
    36   17   39 1
    37   18   19 ar
    38   18   23 1
    39   19   20 ar
    40   19   40 1
    41   20   21 ar
    42   20   22 1
    43   21   41 1
    44   23   24 3
@<TRIPOS>MOLECULE
CHEMBL188220__1
   42    44     0     0     0
SMALL
USER_CHARGES

@<TRIPOS>ATOM
      1 C1         -0.0187    1.5258    0.0104 C.3       1 <0>        -0.1543
      2 C2          0.0021   -0.0041    0.0020 C.3       1 <0>        -0.1248
      3 C3         -1.4333   -0.5336    0.0129 C.3       1 <0>        -0.1165
      4 C4         -1.4126   -2.0635    0.0045 C.3       1 <0>        -0.1376
      5 C5         -2.8479   -2.5931    0.0153 C.3       1 <0>         0.1088
      6 N1         -2.8281   -4.0579    0.0073 N.pl3     1 <0>        -0.4897
      7 C6         -2.8220   -4.8732   -1.1122 C.ar      1 <0>         0.0560
      8 C7         -2.8314   -4.6322   -2.4757 C.ar      1 <0>        -0.0867
      9 C8         -2.8209   -5.7033   -3.3632 C.ar      1 <0>        -0.0372
     10 C9         -2.8014   -7.0151   -2.8806 C.ar      1 <0>        -0.1089
     11 C10        -2.7920   -7.2596   -1.5385 C.ar      1 <0>        -0.0580
     12 C11        -2.8020   -6.1944   -0.6326 C.ar      1 <0>         0.0685
     13 N2         -2.7968   -6.1250    0.7241 N.2       1 <0>        -0.4874
     14 C12        -2.8062   -4.8726    1.1008 C.2       1 <0>         0.4585
     15 O1         -2.7992   -4.4482    2.3851 O.3       1 <0>        -0.4400
     16 C13        -2.8308   -5.4529   -4.8253 C.ar      1 <0>        -0.0043
     17 C14        -2.8260   -6.5226   -5.7151 C.ar      1 <0>        -0.0731
     18 C15        -2.8354   -6.2809   -7.0881 C.ar      1 <0>         0.0129
     19 C16        -2.8495   -4.9671   -7.5626 C.ar      1 <0>        -0.1095
     20 C17        -2.8537   -3.9092   -6.6727 C.ar      1 <0>         0.1107
     21 C18        -2.8507   -4.1456   -5.3093 C.ar      1 <0>        -0.1218
     22 F1         -2.8669   -2.6401   -7.1358 F         1 <0>        -0.1290
     23 C19        -2.8301   -7.3768   -8.0098 C.1       1 <0>         0.2485
     24 N3         -2.8259   -8.2462   -8.7410 N.1       1 <0>        -0.3956
     25 H1          1.0039    1.9031    0.0027 H         1 <0>         0.0557
     26 H2         -0.5459    1.8868   -0.8726 H         1 <0>         0.0546
     27 H3         -0.5289    1.8773    0.9072 H         1 <0>         0.0545
     28 H4          0.5123   -0.3556   -0.8948 H         1 <0>         0.0624
     29 H5          0.5293   -0.3651    0.8851 H         1 <0>         0.0626
     30 H6         -1.9435   -0.1821    0.9097 H         1 <0>         0.0665
     31 H7         -1.9605   -0.1726   -0.8702 H         1 <0>         0.0661
     32 H8         -0.9024   -2.4150   -0.8923 H         1 <0>         0.0706
     33 H9         -0.8854   -2.4246    0.8875 H         1 <0>         0.0733
     34 H10        -3.3581   -2.2415    0.9121 H         1 <0>         0.0950
     35 H11        -3.3751   -2.2320   -0.8677 H         1 <0>         0.0935
     36 H12        -2.8471   -3.6185   -2.8481 H         1 <0>         0.1290
     37 H13        -2.7940   -7.8416   -3.5757 H         1 <0>         0.1375
     38 H14        -2.7770   -8.2766   -1.1754 H         1 <0>         0.1378
     39 H15        -3.6805   -4.3368    2.7673 H         1 <0>         0.4108
     40 H16        -2.8148   -7.5366   -5.3435 H         1 <0>         0.1469
     41 H17        -2.8568   -4.7777   -8.6258 H         1 <0>         0.1486
     42 H18        -2.8589   -3.3154   -4.6186 H         1 <0>         0.1454
@<TRIPOS>BOND
     1    1    2 1
     2    1   25 1
     3    1   26 1
     4    1   27 1
     5    2    3 1
     6    2   28 1
     7    2   29 1
     8    3    4 1
     9    3   30 1
    10    3   31 1
    11    4    5 1
    12    4   32 1
    13    4   33 1
    14    5    6 1
    15    5   34 1
    16    5   35 1
    17    6   14 1
    18    6    7 1
    19    7   12 ar
    20    7    8 ar
    21    8    9 ar
    22    8   36 1
    23    9   10 ar
    24    9   16 1
    25   10   11 ar
    26   10   37 1
    27   11   12 ar
    28   11   38 1
    29   12   13 1
    30   13   14 2
    31   14   15 1
    32   15   39 1
    33   16   21 ar
    34   16   17 ar
    35   17   18 ar
    36   17   40 1
    37   18   19 ar
    38   18   23 1
    39   19   20 ar
    40   19   41 1
    41   20   21 ar
    42   20   22 1
    43   21   42 1
    44   23   24 3
@<TRIPOS>MOLECULE
CHEMBL1209236
   38    39     0     0     0
SMALL
USER_CHARGES

@<TRIPOS>ATOM
      1 C1         -1.4864    1.3856   -0.0801 C.3       1 <0>        -0.1351
      2 C2         -1.3540   -0.1227    0.1395 C.3       1 <0>        -0.1095
      3 C3         -0.3866   -0.3869    1.2950 C.3       1 <0>        -0.1506
      4 C4         -2.7252   -0.7112    0.4776 C.3       1 <0>        -0.1512
      5 C5         -0.8258   -0.7686   -1.1155 C.2       1 <0>         0.4039
      6 O1         -0.5279   -0.0834   -2.0710 O.2       1 <0>        -0.4452
      7 C6         -0.6716   -2.2281   -1.1816 C.ar      1 <0>        -0.1648
      8 C7         -0.9383   -3.0129   -0.0524 C.ar      1 <0>        -0.0767
      9 C8         -0.7947   -4.3691   -0.1150 C.ar      1 <0>        -0.1438
     10 C9         -0.3810   -4.9748   -1.3058 C.ar      1 <0>         0.0124
     11 C10        -0.1140   -4.1922   -2.4338 C.ar      1 <0>        -0.1075
     12 C11        -0.2634   -2.8364   -2.3755 C.ar      1 <0>        -0.0534
     13 C12        -0.2257   -6.4407   -1.3720 C.2       1 <0>         0.0788
     14 C13        -0.2000   -7.1990   -2.5234 C.2       1 <0>        -0.1677
     15 C14        -0.0366   -8.5313   -2.1471 C.2       1 <0>        -0.1106
     16 C15         0.0352   -8.5671   -0.7685 C.2       1 <0>         0.0627
     17 N1         -0.0766   -7.2795   -0.3025 N.pl3     1 <0>        -0.4127
     18 C16        -0.0444   -6.8735    1.1047 C.3       1 <0>         0.0544
     19 C17         0.2024   -9.7407    0.0349 C.1       1 <0>         0.2753
     20 N2          0.3350  -10.6717    0.6722 N.1       1 <0>        -0.4000
     21 H1         -0.5095    1.8049   -0.3210 H         1 <0>         0.0621
     22 H2         -2.1756    1.5739   -0.9033 H         1 <0>         0.0611
     23 H3         -1.8684    1.8528    0.8276 H         1 <0>         0.0638
     24 H4         -0.8187   -0.0131    2.2233 H         1 <0>         0.0715
     25 H5         -0.2093   -1.4588    1.3826 H         1 <0>         0.0690
     26 H6          0.5573    0.1230    1.1024 H         1 <0>         0.0628
     27 H7         -3.4176   -0.5125   -0.3404 H         1 <0>         0.0619
     28 H8         -2.6330   -1.7876    0.6223 H         1 <0>         0.0705
     29 H9         -3.1019   -0.2527    1.3919 H         1 <0>         0.0705
     30 H10        -1.2571   -2.5453    0.8675 H         1 <0>         0.1498
     31 H11        -1.0003   -4.9744    0.7555 H         1 <0>         0.1335
     32 H12         0.2057   -4.6610   -3.3527 H         1 <0>         0.1388
     33 H13        -0.0621   -2.2327   -3.2481 H         1 <0>         0.1395
     34 H14        -0.2904   -6.8281   -3.5336 H         1 <0>         0.1551
     35 H15         0.0226   -9.3803   -2.8121 H         1 <0>         0.1559
     36 H16        -1.0638   -6.7567    1.4726 H         1 <0>         0.0875
     37 H17         0.4684   -7.6359    1.6912 H         1 <0>         0.0892
     38 H18         0.4861   -5.9259    1.1974 H         1 <0>         0.0989
@<TRIPOS>BOND
     1    1    2 1
     2    1   21 1
     3    1   22 1
     4    1   23 1
     5    2    3 1
     6    2    4 1
     7    2    5 1
     8    3   24 1
     9    3   25 1
    10    3   26 1
    11    4   27 1
    12    4   28 1
    13    4   29 1
    14    5    6 2
    15    5    7 1
    16    7   12 ar
    17    7    8 ar
    18    8    9 ar
    19    8   30 1
    20    9   10 ar
    21    9   31 1
    22   10   11 ar
    23   10   13 1
    24   11   12 ar
    25   11   32 1
    26   12   33 1
    27   13   17 1
    28   13   14 2
    29   14   15 1
    30   14   34 1
    31   15   16 2
    32   15   35 1
    33   16   17 1
    34   16   19 1
    35   17   18 1
    36   18   36 1
    37   18   37 1
    38   18   38 1
    39   19   20 3
@<TRIPOS>MOLECULE
CHEMBL117308
   40    42     0     0     0
SMALL
USER_CHARGES

@<TRIPOS>ATOM
      1 C1         -0.0184    1.5028    0.0103 C.3       1 <0>        -0.1170
      2 C2          0.0021   -0.0041    0.0020 C.2       1 <0>        -0.0643
      3 C3          0.0057   -0.6647   -1.1487 C.2       1 <0>        -0.1717
      4 C4          0.0106   -2.1698   -1.1815 C.3       1 <0>         0.2126
      5 N1          0.6717   -2.6955    0.0198 N.pl3     1 <0>        -0.7383
      6 C5          0.3665   -2.1149    1.2516 C.ar      1 <0>         0.2334
      7 C6          0.0243   -0.7531    1.2745 C.ar      1 <0>        -0.1137
      8 C7         -0.2886   -0.1409    2.4807 C.ar      1 <0>        -0.0468
      9 C8         -0.2498   -0.8847    3.6579 C.ar      1 <0>        -0.1137
     10 C9          0.1013   -2.2343    3.6240 C.ar      1 <0>        -0.0528
     11 C10         0.3995   -2.8451    2.4262 C.ar      1 <0>        -0.1752
     12 C11        -0.5826   -0.2394    4.9517 C.ar      1 <0>         0.0143
     13 C12        -0.5397   -0.9781    6.1329 C.ar      1 <0>        -0.0711
     14 C13        -0.8495   -0.3739    7.3344 C.ar      1 <0>        -0.0098
     15 C14        -1.2025    0.9629    7.3691 C.ar      1 <0>        -0.1071
     16 C15        -1.2472    1.7028    6.1988 C.ar      1 <0>         0.1201
     17 C16        -0.9335    1.1081    4.9907 C.ar      1 <0>        -0.1111
     18 F1         -1.5928    3.0083    6.2387 F         1 <0>        -0.1188
     19 N2         -0.8043   -1.1585    8.5887 N.pl3     1 <0>         0.0310
     20 O1         -0.4962   -2.3272    8.5599 O.2       1 <0>        -0.1464
     21 O2         -1.0755   -0.6306    9.6420 O.3       1 <0>        -0.1476
     22 C17         0.7621   -2.6483   -2.4254 C.3       1 <0>        -0.1533
     23 C18        -1.4305   -2.6814   -1.2333 C.3       1 <0>        -0.1586
     24 H1          1.0042    1.8801    0.0026 H         1 <0>         0.0722
     25 H2         -0.5455    1.8639   -0.8728 H         1 <0>         0.0697
     26 H3         -0.5286    1.8543    0.9071 H         1 <0>         0.0661
     27 H4          0.0047   -0.1134   -2.0774 H         1 <0>         0.1250
     28 H5          1.3044   -3.4282   -0.0413 H         1 <0>         0.4048
     29 H6         -0.5597    0.9042    2.5061 H         1 <0>         0.1307
     30 H7          0.1314   -2.8047    4.5406 H         1 <0>         0.1308
     31 H8          0.6708   -3.8903    2.4063 H         1 <0>         0.1314
     32 H9         -0.2646   -2.0222    6.1080 H         1 <0>         0.1623
     33 H10        -1.4445    1.4313    8.3116 H         1 <0>         0.1667
     34 H11        -0.9640    1.6860    4.0789 H         1 <0>         0.1563
     35 H12         1.7881   -2.2815   -2.3935 H         1 <0>         0.0639
     36 H13         0.7665   -3.7380   -2.4504 H         1 <0>         0.0646
     37 H14         0.2673   -2.2663   -3.3183 H         1 <0>         0.0757
     38 H15        -1.9197   -2.2993   -2.1292 H         1 <0>         0.0676
     39 H16        -1.4285   -3.7712   -1.2571 H         1 <0>         0.0613
     40 H17        -1.9698   -2.3382   -0.3504 H         1 <0>         0.0572
@<TRIPOS>BOND
     1    1    2 1
     2    1   24 1
     3    1   25 1
     4    1   26 1
     5    2    7 1
     6    2    3 2
     7    3    4 1
     8    3   27 1
     9    4    5 1
    10    4   22 1
    11    4   23 1
    12    5    6 1
    13    5   28 1
    14    6   11 ar
    15    6    7 ar
    16    7    8 ar
    17    8    9 ar
    18    8   29 1
    19    9   10 ar
    20    9   12 1
    21   10   11 ar
    22   10   30 1
    23   11   31 1
    24   12   17 ar
    25   12   13 ar
    26   13   14 ar
    27   13   32 1
    28   14   15 ar
    29   14   19 1
    30   15   16 ar
    31   15   33 1
    32   16   17 ar
    33   16   18 1
    34   17   34 1
    35   19   20 2
    36   19   21 1
    37   22   35 1
    38   22   36 1
    39   22   37 1
    40   23   38 1
    41   23   39 1
    42   23   40 1
@<TRIPOS>MOLECULE
CHEMBL480179
   43    46     0     0     0
SMALL
USER_CHARGES

@<TRIPOS>ATOM
      1 C1          0.4575    1.3527    1.4787 C.ar      1 <0>        -0.1281
      2 C2          1.4260    2.0801    0.8092 C.ar      1 <0>        -0.0743
      3 C3          2.4154    1.4291    0.0898 C.ar      1 <0>        -0.1146
      4 C4          2.4331    0.0564    0.0423 C.ar      1 <0>        -0.0304
      5 C5          1.4587   -0.6893    0.7149 C.ar      1 <0>        -0.1461
      6 C6          0.4663   -0.0267    1.4371 C.ar      1 <0>        -0.0414
      7 C7          1.4973   -2.1609    0.6495 C.2       1 <0>         0.5673
      8 O1          0.6458   -2.7963    1.2390 O.2       1 <0>        -0.4797
      9 N1          2.4384   -2.8234   -0.0376 N.am      1 <0>        -0.5264
     10 C8          3.4208   -2.2064   -0.7189 C.2       1 <0>         0.5386
     11 O2          4.2454   -2.8575   -1.3237 O.2       1 <0>        -0.4510
     12 C9          3.4897   -0.6971   -0.7263 C.3       1 <0>        -0.0428
     13 C10         4.8504   -0.2926   -0.1666 C.3       1 <0>        -0.1026
     14 C11         5.9617   -0.9911   -0.9524 C.3       1 <0>        -0.1406
     15 C12         5.8917   -0.5643   -2.4205 C.3       1 <0>        -0.1102
     16 C13         4.5206   -0.9336   -2.9912 C.3       1 <0>        -0.1408
     17 C14         3.4272   -0.2363   -2.1795 C.3       1 <0>        -0.1025
     18 C15         2.3975   -4.2209   -0.0464 C.ar      1 <0>         0.1425
     19 C16         1.6812   -4.8875   -1.0344 C.ar      1 <0>        -0.0957
     20 C17         1.6381   -6.2640   -1.0460 C.ar      1 <0>        -0.0591
     21 C18         2.3159   -6.9909   -0.0635 C.ar      1 <0>        -0.0131
     22 C19         3.0351   -6.3173    0.9275 C.ar      1 <0>        -0.0591
     23 C20         3.0778   -4.9408    0.9296 C.ar      1 <0>        -0.0957
     24 C21         2.2732   -8.4222   -0.0720 C.1       1 <0>         0.2499
     25 N2          2.2392   -9.5577   -0.0786 N.1       1 <0>        -0.4042
     26 H1         -0.3073    1.8678    2.0410 H         1 <0>         0.1368
     27 H2          1.4103    3.1593    0.8471 H         1 <0>         0.1361
     28 H3          3.1699    1.9991   -0.4319 H         1 <0>         0.1372
     29 H4         -0.2917   -0.5902    1.9609 H         1 <0>         0.1422
     30 H5          4.9705    0.7874   -0.2511 H         1 <0>         0.0848
     31 H6          4.9114   -0.5822    0.8825 H         1 <0>         0.0683
     32 H7          6.9305   -0.7117   -0.5384 H         1 <0>         0.0654
     33 H8          5.8335   -2.0712   -0.8813 H         1 <0>         0.0944
     34 H9          6.0376    0.5134   -2.4932 H         1 <0>         0.0576
     35 H10         6.6706   -1.0762   -2.9856 H         1 <0>         0.0643
     36 H11         4.4614   -0.6130   -4.0313 H         1 <0>         0.0653
     37 H12         4.3822   -2.0133   -2.9350 H         1 <0>         0.0946
     38 H13         2.4515   -0.4850   -2.5969 H         1 <0>         0.0684
     39 H14         3.5751    0.8427   -2.2241 H         1 <0>         0.0848
     40 H15         1.1576   -4.3251   -1.7933 H         1 <0>         0.1366
     41 H16         1.0810   -6.7810   -1.8133 H         1 <0>         0.1433
     42 H17         3.5599   -6.8757    1.6886 H         1 <0>         0.1433
     43 H18         3.6370   -4.4196    1.6925 H         1 <0>         0.1366
@<TRIPOS>BOND
     1    1    6 ar
     2    1    2 ar
     3    1   26 1
     4    2    3 ar
     5    2   27 1
     6    3    4 ar
     7    3   28 1
     8    4   12 1
     9    4    5 ar
    10    5    6 ar
    11    5    7 1
    12    6   29 1
    13    7    8 2
    14    7    9 am
    15    9   10 am
    16    9   18 1
    17   10   11 2
    18   10   12 1
    19   12   17 1
    20   12   13 1
    21   13   14 1
    22   13   30 1
    23   13   31 1
    24   14   15 1
    25   14   32 1
    26   14   33 1
    27   15   16 1
    28   15   34 1
    29   15   35 1
    30   16   17 1
    31   16   36 1
    32   16   37 1
    33   17   38 1
    34   17   39 1
    35   18   23 ar
    36   18   19 ar
    37   19   20 ar
    38   19   40 1
    39   20   21 ar
    40   20   41 1
    41   21   22 ar
    42   21   24 1
    43   22   23 ar
    44   22   42 1
    45   23   43 1
    46   24   25 3
@<TRIPOS>MOLECULE
CHEMBL480178
   40    43     0     0     0
SMALL
USER_CHARGES

@<TRIPOS>ATOM
      1 C1          0.4680    1.3594    1.4801 C.ar      1 <0>        -0.1285
      2 C2          1.4382    2.0833    0.8094 C.ar      1 <0>        -0.0740
      3 C3          2.4242    1.4291    0.0883 C.ar      1 <0>        -0.1154
      4 C4          2.4378    0.0565    0.0404 C.ar      1 <0>        -0.0269
      5 C5          1.4617   -0.6861    0.7164 C.ar      1 <0>        -0.1476
      6 C6          0.4724   -0.0200    1.4390 C.ar      1 <0>        -0.0408
      7 C7          1.4985   -2.1578    0.6525 C.2       1 <0>         0.5676
      8 O1          0.6442   -2.7898    1.2417 O.2       1 <0>        -0.4795
      9 N1          2.4382   -2.8260   -0.0311 N.am      1 <0>        -0.5284
     10 C8          3.4216   -2.2114   -0.7161 C.2       1 <0>         0.5454
     11 O2          4.2483   -2.8630   -1.3175 O.2       1 <0>        -0.4627
     12 C9          3.4845   -0.7050   -0.7271 C.3       1 <0>        -0.0536
     13 C10         4.8601   -0.2923   -0.1797 C.3       1 <0>        -0.1054
     14 C11         5.7468   -0.1650   -1.4449 C.3       1 <0>        -0.1255
     15 C12         4.7735    0.4412   -2.4870 C.3       1 <0>        -0.1208
     16 C13         3.4234   -0.2463   -2.1891 C.3       1 <0>        -0.1081
     17 C14         2.3958   -4.2235   -0.0328 C.ar      1 <0>         0.1419
     18 C15         3.0703   -4.9390    0.9505 C.ar      1 <0>        -0.0958
     19 C16         3.0312   -6.3156    0.9519 C.ar      1 <0>        -0.0591
     20 C17         2.3122   -6.9935   -0.0364 C.ar      1 <0>        -0.0130
     21 C18         1.6353   -6.2710   -1.0227 C.ar      1 <0>        -0.0590
     22 C19         1.6747   -4.8943   -1.0145 C.ar      1 <0>        -0.0957
     23 C20         2.2696   -8.4249   -0.0386 C.1       1 <0>         0.2501
     24 N2          2.2358   -9.5604   -0.0404 N.1       1 <0>        -0.4041
     25 H1         -0.2948    1.8771    2.0429 H         1 <0>         0.1369
     26 H2          1.4267    3.1625    0.8480 H         1 <0>         0.1363
     27 H3          3.1794    1.9968   -0.4349 H         1 <0>         0.1384
     28 H4         -0.2869   -0.5810    1.9636 H         1 <0>         0.1422
     29 H5          4.7937    0.6646    0.3379 H         1 <0>         0.0883
     30 H6          5.2526   -1.0611    0.4858 H         1 <0>         0.0738
     31 H7          6.5851    0.5075   -1.2628 H         1 <0>         0.0755
     32 H8          6.0992   -1.1440   -1.7695 H         1 <0>         0.0803
     33 H9          4.6910    1.5194   -2.3499 H         1 <0>         0.0717
     34 H10         5.1049    0.2086   -3.4990 H         1 <0>         0.0752
     35 H11         3.2885   -1.1060   -2.8455 H         1 <0>         0.0769
     36 H12         2.6054    0.4610   -2.3253 H         1 <0>         0.0828
     37 H13         3.6257   -4.4144    1.7139 H         1 <0>         0.1367
     38 H14         3.5558   -6.8706    1.7155 H         1 <0>         0.1437
     39 H15         1.0790   -6.7914   -1.7882 H         1 <0>         0.1437
     40 H16         1.1483   -4.3351   -1.7738 H         1 <0>         0.1368
@<TRIPOS>BOND
     1    1    6 ar
     2    1    2 ar
     3    1   25 1
     4    2    3 ar
     5    2   26 1
     6    3    4 ar
     7    3   27 1
     8    4   12 1
     9    4    5 ar
    10    5    6 ar
    11    5    7 1
    12    6   28 1
    13    7    8 2
    14    7    9 am
    15    9   10 am
    16    9   17 1
    17   10   11 2
    18   10   12 1
    19   12   16 1
    20   12   13 1
    21   13   14 1
    22   13   29 1
    23   13   30 1
    24   14   15 1
    25   14   31 1
    26   14   32 1
    27   15   16 1
    28   15   33 1
    29   15   34 1
    30   16   35 1
    31   16   36 1
    32   17   22 ar
    33   17   18 ar
    34   18   19 ar
    35   18   37 1
    36   19   20 ar
    37   19   38 1
    38   20   21 ar
    39   20   23 1
    40   21   22 ar
    41   21   39 1
    42   22   40 1
    43   23   24 3
@<TRIPOS>MOLECULE
CHEMBL156142
   39    41     0     0     0
SMALL
USER_CHARGES

@<TRIPOS>ATOM
      1 C1         -0.0187    1.5258    0.0104 C.3       1 <0>        -0.1491
      2 C2          0.0021   -0.0041    0.0020 C.3       1 <0>        -0.0452
      3 C3         -1.4333   -0.5287   -0.0131 C.3       1 <0>        -0.1228
      4 C4         -1.4071   -2.0491    0.1902 C.3       1 <0>         0.1692
      5 N1         -0.8487   -2.3145    1.5226 N.pl3     1 <0>        -0.7258
      6 C5          0.2908   -1.6190    1.9290 C.ar      1 <0>         0.2900
      7 C6          0.7316   -0.4991    1.2242 C.ar      1 <0>        -0.1569
      8 C7          1.8477    0.1745    1.6367 C.ar      1 <0>        -0.0162
      9 C8          2.5553   -0.2568    2.7652 C.ar      1 <0>        -0.1705
     10 C9          3.7157    0.4309    3.2044 C.2       1 <0>        -0.0575
     11 C10         4.3750   -0.0172    4.3015 C.2       1 <0>        -0.1726
     12 C11         3.9119   -1.1534    4.9962 C.2       1 <0>         0.5412
     13 N2          2.8121   -1.8145    4.5889 N.am      1 <0>        -0.6242
     14 C12         2.1133   -1.3891    3.4778 C.ar      1 <0>         0.2442
     15 C13         0.9786   -2.0625    3.0502 C.ar      1 <0>        -0.2509
     16 O1          4.5167   -1.5433    5.9803 O.2       1 <0>        -0.5245
     17 C14         4.2101    1.6447    2.4605 C.3       1 <0>         0.5053
     18 F1          5.3601    2.1384    3.0857 F         1 <0>        -0.1684
     19 F2          4.5118    1.2919    1.1408 F         1 <0>        -0.1678
     20 F3          3.2175    2.6305    2.4644 F         1 <0>        -0.1677
     21 C15        -0.5275   -2.6998   -0.8792 C.3       1 <0>        -0.1635
     22 C16        -2.8288   -2.6080    0.1037 C.3       1 <0>        -0.1550
     23 H1          1.0039    1.9031    0.0027 H         1 <0>         0.0600
     24 H2         -0.5459    1.8868   -0.8726 H         1 <0>         0.0623
     25 H3         -0.5289    1.8773    0.9072 H         1 <0>         0.0597
     26 H4          0.5192   -0.3524   -0.8920 H         1 <0>         0.0856
     27 H5         -2.0011   -0.0623    0.7920 H         1 <0>         0.0739
     28 H6         -1.8971   -0.2963   -0.9717 H         1 <0>         0.0821
     29 H7         -1.2657   -2.9630    2.1111 H         1 <0>         0.4052
     30 H8          2.1851    1.0424    1.0896 H         1 <0>         0.1368
     31 H9          5.2596    0.4987    4.6446 H         1 <0>         0.1677
     32 H10         0.6305   -2.9313    3.5892 H         1 <0>         0.1365
     33 H11         0.4869   -2.3084   -0.8028 H         1 <0>         0.0642
     34 H12        -0.5126   -3.7794   -0.7299 H         1 <0>         0.0602
     35 H13        -0.9301   -2.4751   -1.8669 H         1 <0>         0.0693
     36 H14        -3.2487   -2.3826   -0.8766 H         1 <0>         0.0766
     37 H15        -2.8040   -3.6880    0.2488 H         1 <0>         0.0639
     38 H16        -3.4464   -2.1515    0.8771 H         1 <0>         0.0645
     39 H17         2.5090   -2.5943    5.0797 H         1 <0>         0.4200
@<TRIPOS>BOND
     1    1    2 1
     2    1   23 1
     3    1   24 1
     4    1   25 1
     5    2    7 1
     6    2    3 1
     7    2   26 1
     8    3    4 1
     9    3   27 1
    10    3   28 1
    11    4    5 1
    12    4   21 1
    13    4   22 1
    14    5    6 1
    15    5   29 1
    16    6   15 ar
    17    6    7 ar
    18    7    8 ar
    19    8    9 ar
    20    8   30 1
    21    9   14 ar
    22    9   10 1
    23   10   11 2
    24   10   17 1
    25   11   12 1
    26   11   31 1
    27   12   13 am
    28   12   16 2
    29   13   14 1
    30   13   39 1
    31   14   15 ar
    32   15   32 1
    33   17   18 1
    34   17   19 1
    35   17   20 1
    36   21   33 1
    37   21   34 1
    38   21   35 1
    39   22   36 1
    40   22   37 1
    41   22   38 1
@<TRIPOS>MOLECULE
CHEMBL156142__1
   39    41     0     0     0
SMALL
USER_CHARGES

@<TRIPOS>ATOM
      1 C1         -0.0187    1.5258    0.0104 C.3       1 <0>        -0.1491
      2 C2          0.0021   -0.0041    0.0020 C.3       1 <0>        -0.0452
      3 C3          0.6954   -0.4929   -1.2693 C.3       1 <0>        -0.1228
      4 C4          0.8986   -2.0104   -1.1704 C.3       1 <0>         0.1692
      5 N1          1.8015   -2.2699   -0.0413 N.pl3     1 <0>        -0.7258
      6 C5          1.5893   -1.5971    1.1627 C.ar      1 <0>         0.2900
      7 C6          0.7316   -0.4991    1.2242 C.ar      1 <0>        -0.1569
      8 C7          0.5366    0.1525    2.4104 C.ar      1 <0>        -0.0161
      9 C8          1.1933   -0.2797    3.5690 C.ar      1 <0>        -0.1705
     10 C9          1.0000    0.3853    4.8070 C.2       1 <0>        -0.0575
     11 C10         1.6528   -0.0629    5.9079 C.2       1 <0>        -0.1726
     12 C11         2.5129   -1.1769    5.8218 C.2       1 <0>         0.5412
     13 N2          2.7049   -1.8158    4.6524 N.am      1 <0>        -0.6243
     14 C12         2.0587   -1.3900    3.5100 C.ar      1 <0>         0.2442
     15 C13         2.2495   -2.0412    2.3003 C.ar      1 <0>        -0.2509
     16 O1          3.0917   -1.5672    6.8212 O.2       1 <0>        -0.5245
     17 C14         0.0805    1.5758    4.8977 C.3       1 <0>         0.5053
     18 F1          0.0597    2.0498    6.2138 F         1 <0>        -0.1684
     19 F2          0.5399    2.5858    4.0456 F         1 <0>        -0.1677
     20 F3         -1.2116    1.1972    4.5179 F         1 <0>        -0.1678
     21 C15         1.5235   -2.5349   -2.4647 C.3       1 <0>        -0.1550
     22 C16        -0.4462   -2.6984   -0.9272 C.3       1 <0>        -0.1635
     23 H1          1.0039    1.9031    0.0027 H         1 <0>         0.0597
     24 H2         -0.5459    1.8868   -0.8726 H         1 <0>         0.0623
     25 H3         -0.5289    1.8773    0.9072 H         1 <0>         0.0600
     26 H4         -1.0215   -0.3783    0.0172 H         1 <0>         0.0856
     27 H5          0.0746   -0.2632   -2.1353 H         1 <0>         0.0821
     28 H6          1.6627   -0.0007   -1.3701 H         1 <0>         0.0739
     29 H7          2.5338   -2.8996   -0.1311 H         1 <0>         0.4052
     30 H8         -0.1268    1.0036    2.4539 H         1 <0>         0.1368
     31 H9          1.5129    0.4357    6.8556 H         1 <0>         0.1676
     32 H10         2.9104   -2.8934    2.2436 H         1 <0>         0.1366
     33 H11         2.4875   -2.0518   -2.6245 H         1 <0>         0.0645
     34 H12         1.6655   -3.6129   -2.3888 H         1 <0>         0.0639
     35 H13         0.8628   -2.3135   -3.3029 H         1 <0>         0.0766
     36 H14        -1.1217   -2.4783   -1.7539 H         1 <0>         0.0693
     37 H15        -0.2958   -3.7758   -0.8579 H         1 <0>         0.0602
     38 H16        -0.8791   -2.3314    0.0033 H         1 <0>         0.0642
     39 H17         3.3008   -2.5801    4.6128 H         1 <0>         0.4200
@<TRIPOS>BOND
     1    1    2 1
     2    1   23 1
     3    1   24 1
     4    1   25 1
     5    2    7 1
     6    2    3 1
     7    2   26 1
     8    3    4 1
     9    3   27 1
    10    3   28 1
    11    4    5 1
    12    4   21 1
    13    4   22 1
    14    5    6 1
    15    5   29 1
    16    6   15 ar
    17    6    7 ar
    18    7    8 ar
    19    8    9 ar
    20    8   30 1
    21    9   14 ar
    22    9   10 1
    23   10   11 2
    24   10   17 1
    25   11   12 1
    26   11   31 1
    27   12   13 am
    28   12   16 2
    29   13   14 1
    30   13   39 1
    31   14   15 ar
    32   15   32 1
    33   17   18 1
    34   17   19 1
    35   17   20 1
    36   21   33 1
    37   21   34 1
    38   21   35 1
    39   22   36 1
    40   22   37 1
    41   22   38 1
@<TRIPOS>MOLECULE
CHEMBL87609
   64    69     0     0     0
SMALL
USER_CHARGES

@<TRIPOS>ATOM
      1 C1         -0.8433    0.5100    0.4616 C.ar      1 <0>        -0.0819
      2 C2          0.1657    1.3718    0.8537 C.ar      1 <0>        -0.1314
      3 C3          1.4567    0.9074    0.9969 C.ar      1 <0>        -0.0538
      4 C4          1.7441   -0.4356    0.7453 C.ar      1 <0>        -0.1268
      5 C5          0.7211   -1.2997    0.3499 C.ar      1 <0>        -0.0605
      6 C6         -0.5655   -0.8220    0.2105 C.ar      1 <0>        -0.1335
      7 C7          3.1244   -0.9399    0.8961 C.2       1 <0>         0.5126
      8 O1          4.0124   -0.1857    1.2398 O.2       1 <0>        -0.5008
      9 O2          3.3983   -2.2362    0.6525 O.3       1 <0>        -0.3410
     10 C8          4.7545   -2.6550    0.8183 C.3       1 <0>         0.1528
     11 C9          4.8684   -4.1245    0.5042 C.2       1 <0>         0.0812
     12 C10         4.7163   -5.1693    1.4135 C.2       1 <0>        -0.2034
     13 C11         4.8941   -6.3370    0.7442 C.2       1 <0>         0.0959
     14 N1          5.1477   -6.0391   -0.5435 N.pl3     1 <0>        -0.3129
     15 N2          5.1222   -4.6424   -0.6733 N.2       1 <0>        -0.2606
     16 C12         5.3897   -6.9606   -1.5728 C.ar      1 <0>         0.1400
     17 C13         4.5471   -8.0509   -1.7417 C.ar      1 <0>        -0.0956
     18 C14         4.7869   -8.9572   -2.7558 C.ar      1 <0>        -0.1350
     19 C15         5.8674   -8.7792   -3.6036 C.ar      1 <0>         0.1098
     20 C16         6.7092   -7.6924   -3.4363 C.ar      1 <0>        -0.1344
     21 C17         6.4687   -6.7804   -2.4275 C.ar      1 <0>        -0.0745
     22 F1          6.1007   -9.6670   -4.5948 F         1 <0>        -0.1303
     23 C18         4.8121   -7.7002    1.3843 C.3       1 <0>        -0.0173
     24 C19         4.9185   -7.5278    2.9045 C.3       1 <0>        -0.1075
     25 C20         3.9307   -6.4536    3.3678 C.3       1 <0>        -0.1199
     26 C21         4.4077   -5.0776    2.8871 C.3       1 <0>        -0.0449
     27 C22         5.9631   -8.5748    0.8831 C.3       1 <0>        -0.0887
     28 C23         5.9667   -9.8802    1.6360 C.ar      1 <0>        -0.0656
     29 C24         6.8556  -10.0847    2.6465 C.ar      1 <0>        -0.1093
     30 C25         6.8740  -11.2850    3.3539 C.ar      1 <0>        -0.1122
     31 C26         6.0039  -12.2882    3.0547 C.ar      1 <0>        -0.1077
     32 C27         5.0717  -12.1138    2.0181 C.ar      1 <0>        -0.0498
     33 C28         5.0489  -10.8904    1.3026 C.ar      1 <0>        -0.0427
     34 C29         4.1124  -10.7138    0.2694 C.ar      1 <0>        -0.1183
     35 C30         3.2387  -11.7146   -0.0255 C.ar      1 <0>        -0.1138
     36 C31         3.2568  -12.9151    0.6823 C.ar      1 <0>        -0.1163
     37 C32         4.1580  -13.1268    1.6800 C.ar      1 <0>        -0.1036
     38 H1         -1.8532    0.8778    0.3553 H         1 <0>         0.1309
     39 H2         -0.0579    2.4104    1.0477 H         1 <0>         0.1345
     40 H3          2.2435    1.5812    1.3027 H         1 <0>         0.1388
     41 H4          0.9366   -2.3395    0.1533 H         1 <0>         0.1376
     42 H5         -1.3578   -1.4893   -0.0953 H         1 <0>         0.1324
     43 H6          5.3949   -2.0883    0.1424 H         1 <0>         0.0873
     44 H7          5.0661   -2.4782    1.8477 H         1 <0>         0.0945
     45 H8          3.7048   -8.1905   -1.0803 H         1 <0>         0.1409
     46 H9          4.1317   -9.8056   -2.8875 H         1 <0>         0.1489
     47 H10         7.5517   -7.5555   -4.0980 H         1 <0>         0.1486
     48 H11         7.1224   -5.9301   -2.3006 H         1 <0>         0.1442
     49 H12         3.8596   -8.1669    1.1335 H         1 <0>         0.0923
     50 H13         4.6837   -8.4728    3.3945 H         1 <0>         0.0774
     51 H14         5.9327   -7.2256    3.1657 H         1 <0>         0.0712
     52 H15         2.9454   -6.6623    2.9511 H         1 <0>         0.0657
     53 H16         3.8731   -6.4583    4.4562 H         1 <0>         0.0730
     54 H17         5.3059   -4.7893    3.4331 H         1 <0>         0.0741
     55 H18         3.6237   -4.3386    3.0528 H         1 <0>         0.0752
     56 H19         5.8342   -8.7698   -0.1816 H         1 <0>         0.0840
     57 H20         6.9092   -8.0587    1.0460 H         1 <0>         0.0789
     58 H21         7.5574   -9.3050    2.9035 H         1 <0>         0.1224
     59 H22         7.5896  -11.4216    4.1512 H         1 <0>         0.1241
     60 H23         6.0302  -13.2134    3.6111 H         1 <0>         0.1268
     61 H24         4.0862   -9.7887   -0.2872 H         1 <0>         0.1251
     62 H25         2.5202  -11.5763   -0.8199 H         1 <0>         0.1223
     63 H26         2.5522  -13.6931    0.4282 H         1 <0>         0.1235
     64 H27         4.1609  -14.0625    2.2194 H         1 <0>         0.1272
@<TRIPOS>BOND
     1    1    6 ar
     2    1    2 ar
     3    1   38 1
     4    2    3 ar
     5    2   39 1
     6    3    4 ar
     7    3   40 1
     8    4    5 ar
     9    4    7 1
    10    5    6 ar
    11    5   41 1
    12    6   42 1
    13    7    8 2
    14    7    9 1
    15    9   10 1
    16   10   11 1
    17   10   43 1
    18   10   44 1
    19   11   15 2
    20   11   12 1
    21   12   26 1
    22   12   13 2
    23   13   14 1
    24   13   23 1
    25   14   15 1
    26   14   16 1
    27   16   21 ar
    28   16   17 ar
    29   17   18 ar
    30   17   45 1
    31   18   19 ar
    32   18   46 1
    33   19   20 ar
    34   19   22 1
    35   20   21 ar
    36   20   47 1
    37   21   48 1
    38   23   24 1
    39   23   27 1
    40   23   49 1
    41   24   25 1
    42   24   50 1
    43   24   51 1
    44   25   26 1
    45   25   52 1
    46   25   53 1
    47   26   54 1
    48   26   55 1
    49   27   28 1
    50   27   56 1
    51   27   57 1
    52   28   33 ar
    53   28   29 ar
    54   29   30 ar
    55   29   58 1
    56   30   31 ar
    57   30   59 1
    58   31   32 ar
    59   31   60 1
    60   32   37 ar
    61   32   33 ar
    62   33   34 ar
    63   34   35 ar
    64   34   61 1
    65   35   36 ar
    66   35   62 1
    67   36   37 ar
    68   36   63 1
    69   37   64 1
@<TRIPOS>MOLECULE
CHEMBL87609__1
   64    69     0     0     0
SMALL
USER_CHARGES

@<TRIPOS>ATOM
      1 C1          0.8302    1.6402   -1.0226 C.ar      1 <0>        -0.0820
      2 C2          2.0690    2.2471   -0.9152 C.ar      1 <0>        -0.1313
      3 C3          3.2038    1.4809   -0.7479 C.ar      1 <0>        -0.0538
      4 C4          3.1002    0.0898   -0.6870 C.ar      1 <0>        -0.1266
      5 C5          1.8470   -0.5161   -0.7961 C.ar      1 <0>        -0.0606
      6 C6          0.7204    0.2621   -0.9631 C.ar      1 <0>        -0.1335
      7 C7          4.3112   -0.7373   -0.5085 C.2       1 <0>         0.5124
      8 O1          5.4002   -0.2073   -0.4143 O.2       1 <0>        -0.5007
      9 O2          4.2078   -2.0791   -0.4502 O.3       1 <0>        -0.3408
     10 C8          5.4197   -2.8162   -0.2762 C.3       1 <0>         0.1526
     11 C9          5.1094   -4.2903   -0.2342 C.2       1 <0>         0.0814
     12 C10         4.8103   -5.0308    0.9076 C.2       1 <0>        -0.2036
     13 C11         4.5912   -6.3160    0.5286 C.2       1 <0>         0.0955
     14 N1          4.7484   -6.3842   -0.8063 N.pl3     1 <0>        -0.3115
     15 N2          5.0683   -5.0979   -1.2663 N.2       1 <0>        -0.2613
     16 C12         4.6121   -7.5345   -1.5968 C.ar      1 <0>         0.1383
     17 C13         5.1838   -8.7314   -1.1869 C.ar      1 <0>        -0.0909
     18 C14         5.0485   -9.8631   -1.9667 C.ar      1 <0>        -0.1367
     19 C15         4.3434   -9.8045   -3.1572 C.ar      1 <0>         0.1086
     20 C16         3.7728   -8.6115   -3.5680 C.ar      1 <0>        -0.1355
     21 C17         3.9004   -7.4792   -2.7875 C.ar      1 <0>        -0.0750
     22 F1          4.2125  -10.9126   -3.9190 F         1 <0>        -0.1309
     23 C18         4.2347   -7.4299    1.4807 C.3       1 <0>        -0.0154
     24 C19         3.7675   -6.8062    2.8017 C.3       1 <0>        -0.1111
     25 C20         4.7880   -5.7625    3.2635 C.3       1 <0>        -0.1206
     26 C21         4.7318   -4.5445    2.3333 C.3       1 <0>        -0.0443
     27 C22         3.1088   -8.2771    0.8843 C.3       1 <0>        -0.0933
     28 C23         2.8464   -9.4633    1.7759 C.ar      1 <0>        -0.0647
     29 C24         3.5436  -10.6192    1.5997 C.ar      1 <0>        -0.1139
     30 C25         3.3147  -11.7263    2.4142 C.ar      1 <0>        -0.1126
     31 C26         2.3870  -11.6843    3.4095 C.ar      1 <0>        -0.1074
     32 C27         1.6478  -10.5085    3.6217 C.ar      1 <0>        -0.0496
     33 C28         1.8850   -9.3802    2.7971 C.ar      1 <0>        -0.0430
     34 C29         1.1496   -8.2021    3.0132 C.ar      1 <0>        -0.1091
     35 C30         0.2264   -8.1584    4.0121 C.ar      1 <0>        -0.1155
     36 C31        -0.0023   -9.2658    4.8271 C.ar      1 <0>        -0.1148
     37 C32         0.6813  -10.4275    4.6388 C.ar      1 <0>        -0.1069
     38 H1         -0.0556    2.2450   -1.1489 H         1 <0>         0.1308
     39 H2          2.1477    3.3232   -0.9628 H         1 <0>         0.1345
     40 H3          4.1702    1.9559   -0.6645 H         1 <0>         0.1388
     41 H4          1.7600   -1.5916   -0.7502 H         1 <0>         0.1376
     42 H5         -0.2496   -0.2052   -1.0477 H         1 <0>         0.1323
     43 H6          6.0928   -2.6102   -1.1084 H         1 <0>         0.0872
     44 H7          5.8953   -2.5182    0.6582 H         1 <0>         0.0942
     45 H8          5.7343   -8.7773   -0.2588 H         1 <0>         0.1413
     46 H9          5.4931  -10.7943   -1.6481 H         1 <0>         0.1489
     47 H10         3.2239   -8.5675   -4.4971 H         1 <0>         0.1481
     48 H11         3.4508   -6.5502   -3.1057 H         1 <0>         0.1442
     49 H12         5.1099   -8.0547    1.6590 H         1 <0>         0.0934
     50 H13         2.7993   -6.3275    2.6549 H         1 <0>         0.0730
     51 H14         3.6765   -7.5850    3.5589 H         1 <0>         0.0784
     52 H15         4.5550   -5.4526    4.2822 H         1 <0>         0.0729
     53 H16         5.7881   -6.1950    3.2353 H         1 <0>         0.0657
     54 H17         5.5728   -3.8834    2.5425 H         1 <0>         0.0740
     55 H18         3.7954   -4.0082    2.4872 H         1 <0>         0.0751
     56 H19         2.2038   -7.6748    0.8051 H         1 <0>         0.0800
     57 H20         3.4016   -8.6249   -0.1064 H         1 <0>         0.0863
     58 H21         4.2849  -10.6791    0.8166 H         1 <0>         0.1199
     59 H22         3.8816  -12.6313    2.2532 H         1 <0>         0.1236
     60 H23         2.2199  -12.5505    4.0326 H         1 <0>         0.1265
     61 H24         1.3165   -7.3360    2.3901 H         1 <0>         0.1293
     62 H25        -0.3374   -7.2520    4.1761 H         1 <0>         0.1226
     63 H26        -0.7405   -9.2044    5.6130 H         1 <0>         0.1228
     64 H27         0.4929  -11.2778    5.2776 H         1 <0>         0.1265
@<TRIPOS>BOND
     1    1    6 ar
     2    1    2 ar
     3    1   38 1
     4    2    3 ar
     5    2   39 1
     6    3    4 ar
     7    3   40 1
     8    4    5 ar
     9    4    7 1
    10    5    6 ar
    11    5   41 1
    12    6   42 1
    13    7    8 2
    14    7    9 1
    15    9   10 1
    16   10   11 1
    17   10   43 1
    18   10   44 1
    19   11   15 2
    20   11   12 1
    21   12   26 1
    22   12   13 2
    23   13   14 1
    24   13   23 1
    25   14   15 1
    26   14   16 1
    27   16   21 ar
    28   16   17 ar
    29   17   18 ar
    30   17   45 1
    31   18   19 ar
    32   18   46 1
    33   19   20 ar
    34   19   22 1
    35   20   21 ar
    36   20   47 1
    37   21   48 1
    38   23   24 1
    39   23   27 1
    40   23   49 1
    41   24   25 1
    42   24   50 1
    43   24   51 1
    44   25   26 1
    45   25   52 1
    46   25   53 1
    47   26   54 1
    48   26   55 1
    49   27   28 1
    50   27   56 1
    51   27   57 1
    52   28   33 ar
    53   28   29 ar
    54   29   30 ar
    55   29   58 1
    56   30   31 ar
    57   30   59 1
    58   31   32 ar
    59   31   60 1
    60   32   37 ar
    61   32   33 ar
    62   33   34 ar
    63   34   35 ar
    64   34   61 1
    65   35   36 ar
    66   35   62 1
    67   36   37 ar
    68   36   63 1
    69   37   64 1
@<TRIPOS>MOLECULE
CHEMBL328058
   37    40     0     0     0
SMALL
USER_CHARGES

@<TRIPOS>ATOM
      1 C1         -0.0184    1.5028    0.0103 C.3       1 <0>        -0.1171
      2 C2          0.0021   -0.0041    0.0020 C.2       1 <0>        -0.0571
      3 C3          0.0057   -0.6647   -1.1489 C.2       1 <0>        -0.1763
      4 C4          0.0104   -2.1698   -1.1818 C.3       1 <0>         0.2150
      5 N1          0.6731   -2.6964    0.0181 N.pl3     1 <0>        -0.7372
      6 C5          0.3684   -2.1170    1.2523 C.ar      1 <0>         0.2534
      7 C6          0.0243   -0.7529    1.2743 C.ar      1 <0>        -0.1273
      8 C7         -0.2894   -0.1396    2.4787 C.ar      1 <0>        -0.0122
      9 C8         -0.2498   -0.8822    3.6535 C.ar      1 <0>        -0.1653
     10 C9         -0.5161   -0.5628    5.0697 C.ar      1 <0>        -0.1073
     11 C10        -0.9029    0.5909    5.7430 C.ar      1 <0>        -0.0703
     12 C11        -1.0728    0.5596    7.1114 C.ar      1 <0>        -0.1343
     13 C12        -0.8590   -0.6170    7.8118 C.ar      1 <0>        -0.0900
     14 C13        -0.4745   -1.7663    7.1535 C.ar      1 <0>        -0.1111
     15 C14        -0.2983   -1.7541    5.7751 C.ar      1 <0>         0.0737
     16 O1          0.0653   -2.7139    4.8960 O.3       1 <0>        -0.2015
     17 C15         0.1040   -2.2402    3.6307 C.ar      1 <0>         0.1295
     18 C16         0.4041   -2.8492    2.4204 C.ar      1 <0>        -0.1830
     19 C17         0.7598   -2.6481   -2.4270 C.3       1 <0>        -0.1525
     20 C18        -1.4308   -2.6810   -1.2316 C.3       1 <0>        -0.1590
     21 H1          1.0042    1.8801    0.0026 H         1 <0>         0.0719
     22 H2         -0.5455    1.8639   -0.8728 H         1 <0>         0.0692
     23 H3         -0.5286    1.8543    0.9071 H         1 <0>         0.0674
     24 H4          0.0050   -0.1134   -2.0775 H         1 <0>         0.1249
     25 H5          1.3063   -3.4285   -0.0445 H         1 <0>         0.4049
     26 H6         -0.5614    0.9053    2.5034 H         1 <0>         0.1337
     27 H7         -1.0693    1.5076    5.1967 H         1 <0>         0.1285
     28 H8         -1.3733    1.4534    7.6380 H         1 <0>         0.1326
     29 H9         -0.9945   -0.6339    8.8831 H         1 <0>         0.1375
     30 H10        -0.3103   -2.6772    7.7101 H         1 <0>         0.1342
     31 H11         0.6768   -3.8940    2.3955 H         1 <0>         0.1356
     32 H12         1.7858   -2.2814   -2.3968 H         1 <0>         0.0640
     33 H13         0.7640   -3.7378   -2.4522 H         1 <0>         0.0641
     34 H14         0.2634   -2.2660   -3.3189 H         1 <0>         0.0756
     35 H15        -1.9212   -2.2988   -2.1268 H         1 <0>         0.0674
     36 H16        -1.4291   -3.7708   -1.2555 H         1 <0>         0.0609
     37 H17        -1.9689   -2.3378   -0.3480 H         1 <0>         0.0576
@<TRIPOS>BOND
     1    1    2 1
     2    1   21 1
     3    1   22 1
     4    1   23 1
     5    2    7 1
     6    2    3 2
     7    3    4 1
     8    3   24 1
     9    4    5 1
    10    4   19 1
    11    4   20 1
    12    5    6 1
    13    5   25 1
    14    6   18 ar
    15    6    7 ar
    16    7    8 ar
    17    8    9 ar
    18    8   26 1
    19    9   17 ar
    20    9   10 1
    21   10   15 ar
    22   10   11 ar
    23   11   12 ar
    24   11   27 1
    25   12   13 ar
    26   12   28 1
    27   13   14 ar
    28   13   29 1
    29   14   15 ar
    30   14   30 1
    31   15   16 1
    32   16   17 1
    33   17   18 ar
    34   18   31 1
    35   19   32 1
    36   19   33 1
    37   19   34 1
    38   20   35 1
    39   20   36 1
    40   20   37 1
@<TRIPOS>MOLECULE
CHEMBL50786
   40    42     0     0     0
SMALL
USER_CHARGES

@<TRIPOS>ATOM
      1 C1         -0.0184    1.5028    0.0103 C.3       1 <0>        -0.1250
      2 C2          0.0021   -0.0041    0.0020 C.2       1 <0>        -0.1046
      3 C3          0.0049   -0.6255   -1.1642 C.2       1 <0>        -0.1354
      4 C4          0.0153   -2.0995   -1.2289 C.2       1 <0>        -0.0844
      5 C5         -0.2044   -2.7391   -2.3726 C.2       1 <0>        -0.1774
      6 C6          0.2847   -2.8582    0.0545 C.3       1 <0>        -0.0366
      7 C7         -0.4980   -2.1541    1.1723 C.3       1 <0>        -0.0540
      8 C8          0.0243   -0.7235    1.3176 C.3       1 <0>        -0.0786
      9 C9         -1.9859   -2.1271    0.8165 C.3       1 <0>        -0.1420
     10 C10        -0.2984   -2.9067    2.4893 C.3       1 <0>        -0.1473
     11 C11         1.7814   -2.8320    0.3707 C.3       1 <0>        -0.0817
     12 C12         2.5335   -3.5845   -0.6966 C.ar      1 <0>        -0.0353
     13 C13         2.7499   -4.9586   -0.5360 C.ar      1 <0>        -0.0628
     14 C14         3.4176   -5.6891   -1.4584 C.ar      1 <0>        -0.0888
     15 C15         3.9176   -5.0574   -2.6263 C.ar      1 <0>         0.0871
     16 C16         3.6892   -3.6097   -2.7958 C.ar      1 <0>         0.0940
     17 C17         2.9758   -2.9144   -1.7855 C.ar      1 <0>        -0.0812
     18 N1          4.2316   -3.2414   -3.9333 N.2       1 <0>        -0.2616
     19 O1          4.8136   -4.3872   -4.5307 O.3       1 <0>         0.0586
     20 N2          4.5863   -5.4899   -3.6701 N.2       1 <0>        -0.2605
     21 H1          1.0042    1.8801    0.0026 H         1 <0>         0.0687
     22 H2         -0.5455    1.8639   -0.8728 H         1 <0>         0.0638
     23 H3         -0.5286    1.8543    0.9071 H         1 <0>         0.0640
     24 H4         -0.0007   -0.0495   -2.0777 H         1 <0>         0.1136
     25 H5         -0.3949   -2.1794   -3.2764 H         1 <0>         0.0997
     26 H6         -0.1925   -3.8187   -2.3985 H         1 <0>         0.0980
     27 H7         -0.0565   -3.8886   -0.0450 H         1 <0>         0.0834
     28 H8          1.0472   -0.7495    1.6932 H         1 <0>         0.0791
     29 H9         -0.6028   -0.1864    2.0291 H         1 <0>         0.0741
     30 H10        -2.3514   -3.1480    0.7054 H         1 <0>         0.0545
     31 H11        -2.5403   -1.6271    1.6107 H         1 <0>         0.0552
     32 H12        -2.1258   -1.5871   -0.1199 H         1 <0>         0.0617
     33 H13         0.7617   -2.9211    2.7425 H         1 <0>         0.0596
     34 H14        -0.8545   -2.4059    3.2819 H         1 <0>         0.0587
     35 H15        -0.6602   -3.9293    2.3819 H         1 <0>         0.0590
     36 H16         2.1285   -1.7992    0.4001 H         1 <0>         0.0864
     37 H17         1.9567   -3.3019    1.3384 H         1 <0>         0.0905
     38 H18         2.3734   -5.4491    0.3494 H         1 <0>         0.1483
     39 H19         3.5696   -6.7475   -1.3064 H         1 <0>         0.1517
     40 H20         2.7897   -1.8551   -1.8836 H         1 <0>         0.1477
@<TRIPOS>BOND
     1    1    2 1
     2    1   21 1
     3    1   22 1
     4    1   23 1
     5    2    8 1
     6    2    3 2
     7    3    4 1
     8    3   24 1
     9    4    5 2
    10    4    6 1
    11    5   25 1
    12    5   26 1
    13    6    7 1
    14    6   11 1
    15    6   27 1
    16    7    8 1
    17    7    9 1
    18    7   10 1
    19    8   28 1
    20    8   29 1
    21    9   30 1
    22    9   31 1
    23    9   32 1
    24   10   33 1
    25   10   34 1
    26   10   35 1
    27   11   12 1
    28   11   36 1
    29   11   37 1
    30   12   17 ar
    31   12   13 ar
    32   13   14 ar
    33   13   38 1
    34   14   15 ar
    35   14   39 1
    36   15   20 2
    37   15   16 ar
    38   16   17 ar
    39   16   18 2
    40   17   40 1
    41   18   19 1
    42   19   20 1
@<TRIPOS>MOLECULE
CHEMBL50786__1
   40    42     0     0     0
SMALL
USER_CHARGES

@<TRIPOS>ATOM
      1 C1         -0.0184    1.5028    0.0103 C.3       1 <0>        -0.1250
      2 C2          0.0021   -0.0041    0.0020 C.2       1 <0>        -0.1028
      3 C3          0.0049   -0.6255   -1.1642 C.2       1 <0>        -0.1368
      4 C4          0.0350   -2.0992   -1.2290 C.2       1 <0>        -0.0836
      5 C5          0.2610   -2.7326   -2.3750 C.2       1 <0>        -0.1786
      6 C6         -0.2004   -2.8650    0.0570 C.3       1 <0>        -0.0370
      7 C7          0.5736   -2.1391    1.1669 C.3       1 <0>        -0.0545
      8 C8          0.0243   -0.7235    1.3176 C.3       1 <0>        -0.0791
      9 C9          0.4081   -2.8969    2.4858 C.3       1 <0>        -0.1478
     10 C10         2.0564   -2.0708    0.7964 C.3       1 <0>        -0.1425
     11 C11        -1.6940   -2.8804    0.3880 C.3       1 <0>        -0.0827
     12 C12        -2.4355   -3.6537   -0.6718 C.ar      1 <0>        -0.0254
     13 C13        -2.9186   -2.9743   -1.7970 C.ar      1 <0>        -0.0558
     14 C14        -3.5915   -3.6122   -2.7822 C.ar      1 <0>        -0.0888
     15 C15        -3.8205   -5.0090   -2.6853 C.ar      1 <0>         0.0885
     16 C16        -3.3110   -5.7250   -1.5000 C.ar      1 <0>         0.0936
     17 C17        -2.6107   -4.9856   -0.5121 C.ar      1 <0>        -0.0966
     18 N1         -3.6334   -6.9921   -1.6189 N.2       1 <0>        -0.2633
     19 O1         -4.3387   -7.1508   -2.8379 O.3       1 <0>         0.0583
     20 N2         -4.4246   -5.8802   -3.4597 N.2       1 <0>        -0.2607
     21 H1          1.0042    1.8801    0.0026 H         1 <0>         0.0690
     22 H2         -0.5455    1.8639   -0.8728 H         1 <0>         0.0641
     23 H3         -0.5286    1.8543    0.9071 H         1 <0>         0.0642
     24 H4         -0.0153   -0.0497   -2.0777 H         1 <0>         0.1144
     25 H5          0.4268   -2.1679   -3.2805 H         1 <0>         0.1009
     26 H6          0.2789   -3.8121   -2.4009 H         1 <0>         0.0977
     27 H7          0.1684   -3.8855   -0.0461 H         1 <0>         0.0830
     28 H8          0.6494   -0.1689    2.0175 H         1 <0>         0.0749
     29 H9         -0.9903   -0.7780    1.7122 H         1 <0>         0.0789
     30 H10         0.7972   -3.9090    2.3746 H         1 <0>         0.0590
     31 H11         0.9579   -2.3807    3.2728 H         1 <0>         0.0590
     32 H12        -0.6486   -2.9407    2.7495 H         1 <0>         0.0596
     33 H13         2.1719   -1.5273   -0.1414 H         1 <0>         0.0617
     34 H14         2.6046   -1.5554    1.5850 H         1 <0>         0.0553
     35 H15         2.4491   -3.0811    0.6814 H         1 <0>         0.0541
     36 H16        -1.8464   -3.3549    1.3574 H         1 <0>         0.0892
     37 H17        -2.0695   -1.8577    0.4211 H         1 <0>         0.0888
     38 H18        -2.7496   -1.9108   -1.8804 H         1 <0>         0.1469
     39 H19        -3.9527   -3.0610   -3.6378 H         1 <0>         0.1509
     40 H20        -2.2227   -5.4829    0.3646 H         1 <0>         0.1492
@<TRIPOS>BOND
     1    1    2 1
     2    1   21 1
     3    1   22 1
     4    1   23 1
     5    2    8 1
     6    2    3 2
     7    3    4 1
     8    3   24 1
     9    4    5 2
    10    4    6 1
    11    5   25 1
    12    5   26 1
    13    6    7 1
    14    6   11 1
    15    6   27 1
    16    7    8 1
    17    7    9 1
    18    7   10 1
    19    8   28 1
    20    8   29 1
    21    9   30 1
    22    9   31 1
    23    9   32 1
    24   10   33 1
    25   10   34 1
    26   10   35 1
    27   11   12 1
    28   11   36 1
    29   11   37 1
    30   12   17 ar
    31   12   13 ar
    32   13   14 ar
    33   13   38 1
    34   14   15 ar
    35   14   39 1
    36   15   20 2
    37   15   16 ar
    38   16   17 ar
    39   16   18 2
    40   17   40 1
    41   18   19 1
    42   19   20 1
@<TRIPOS>MOLECULE
CHEMBL194745
   50    52     0     0     0
SMALL
USER_CHARGES

@<TRIPOS>ATOM
      1 C1          0.8283    0.0027    0.5675 C.3       1 <0>        -0.1527
      2 C2         -0.3109   -0.2556   -0.4205 C.3       1 <0>        -0.0212
      3 C3          0.0472   -1.4467   -1.3117 C.3       1 <0>        -0.1362
      4 C4         -1.5953   -0.5642    0.3514 C.3       1 <0>        -0.1400
      5 C5         -1.6381    0.2783    1.6278 C.3       1 <0>         0.0858
      6 C6         -2.8279   -0.1284    2.4585 C.2       1 <0>         0.4904
      7 O1         -3.7930   -0.6361    1.9278 O.2       1 <0>        -0.4760
      8 N1         -2.8194    0.0720    3.7913 N.am      1 <0>        -0.6563
      9 C7         -3.8658   -0.4113    4.5756 C.ar      1 <0>         0.1860
     10 C8         -4.4934   -1.6064    4.2369 C.ar      1 <0>        -0.1293
     11 C9         -5.5273   -2.0891    5.0072 C.ar      1 <0>        -0.0080
     12 C10        -5.9476   -1.3759    6.1329 C.ar      1 <0>        -0.2094
     13 C11        -5.3117   -0.1746    6.4676 C.ar      1 <0>        -0.0792
     14 C12        -4.2779    0.2997    5.7000 C.ar      1 <0>        -0.1215
     15 C13        -5.9954    0.3289    7.7135 C.3       1 <0>         0.0911
     16 O2         -7.0094   -0.6252    8.0402 O.3       1 <0>        -0.3133
     17 C14        -6.9967   -1.6193    7.1363 C.2       1 <0>         0.5232
     18 O3         -7.7420   -2.5789    7.1459 O.2       1 <0>        -0.4468
     19 C15        -1.7562    1.7583    1.2582 C.3       1 <0>         0.4692
     20 F1         -2.8540    1.9412    0.4106 F         1 <0>        -0.1594
     21 F2         -1.9330    2.5166    2.4205 F         1 <0>        -0.1754
     22 F3         -0.5894    2.1705    0.6056 F         1 <0>        -0.1380
     23 O4         -0.4397    0.0687    2.3774 O.3       1 <0>        -0.5144
     24 C16        -0.5206    0.9669   -1.2763 C.ar      1 <0>        -0.0610
     25 C17        -1.7900    1.2972   -1.7106 C.ar      1 <0>        -0.1600
     26 C18        -1.9830    2.4204   -2.4964 C.ar      1 <0>         0.1011
     27 C19        -0.9045    3.2143   -2.8486 C.ar      1 <0>        -0.1460
     28 C20         0.3657    2.8864   -2.4159 C.ar      1 <0>        -0.1115
     29 C21         0.5597    1.7642   -1.6236 C.ar      1 <0>         0.1059
     30 O5          1.8085    1.4436   -1.1924 O.3       1 <0>        -0.4808
     31 F4         -3.2248    2.7422   -2.9203 F         1 <0>        -0.1360
     32 H1          1.7747    0.0435    0.0283 H         1 <0>         0.0726
     33 H2          0.6593    0.9514    1.0770 H         1 <0>         0.0924
     34 H3          0.8626   -0.8027    1.3012 H         1 <0>         0.0527
     35 H4          0.1131   -2.3487   -0.7033 H         1 <0>         0.0653
     36 H5         -0.7234   -1.5765   -2.0716 H         1 <0>         0.0593
     37 H6          1.0068   -1.2634   -1.7949 H         1 <0>         0.0623
     38 H7         -2.4587   -0.3265   -0.2700 H         1 <0>         0.1068
     39 H8         -1.6165   -1.6220    0.6134 H         1 <0>         0.1029
     40 H9         -2.0852    0.5525    4.2048 H         1 <0>         0.4243
     41 H10        -4.1684   -2.1570    3.3665 H         1 <0>         0.1473
     42 H11        -6.0127   -3.0167    4.7418 H         1 <0>         0.1443
     43 H12        -3.7873    1.2247    5.9651 H         1 <0>         0.1432
     44 H13        -5.2764    0.4032    8.5294 H         1 <0>         0.1203
     45 H14        -6.4467    1.3028    7.5237 H         1 <0>         0.1198
     46 H15        -0.2995   -0.8496    2.6462 H         1 <0>         0.3990
     47 H16        -2.6320    0.6786   -1.4372 H         1 <0>         0.1436
     48 H17        -1.0563    4.0899   -3.4623 H         1 <0>         0.1390
     49 H18         1.2067    3.5055   -2.6911 H         1 <0>         0.1391
     50 H19         2.2956    0.8639   -1.7939 H         1 <0>         0.3855
@<TRIPOS>BOND
     1    1    2 1
     2    1   32 1
     3    1   33 1
     4    1   34 1
     5    2    3 1
     6    2    4 1
     7    2   24 1
     8    3   35 1
     9    3   36 1
    10    3   37 1
    11    4    5 1
    12    4   38 1
    13    4   39 1
    14    5    6 1
    15    5   19 1
    16    5   23 1
    17    6    7 2
    18    6    8 am
    19    8    9 1
    20    8   40 1
    21    9   14 ar
    22    9   10 ar
    23   10   11 ar
    24   10   41 1
    25   11   12 ar
    26   11   42 1
    27   12   17 1
    28   12   13 ar
    29   13   14 ar
    30   13   15 1
    31   14   43 1
    32   15   16 1
    33   15   44 1
    34   15   45 1
    35   16   17 1
    36   17   18 2
    37   19   20 1
    38   19   21 1
    39   19   22 1
    40   23   46 1
    41   24   29 ar
    42   24   25 ar
    43   25   26 ar
    44   25   47 1
    45   26   27 ar
    46   26   31 1
    47   27   28 ar
    48   27   48 1
    49   28   29 ar
    50   28   49 1
    51   29   30 1
    52   30   50 1
@<TRIPOS>MOLECULE
CHEMBL194745__1
   50    52     0     0     0
SMALL
USER_CHARGES

@<TRIPOS>ATOM
      1 C1          0.2382    0.3718   -1.4975 C.3       1 <0>        -0.1375
      2 C2         -0.1191    0.5431   -0.0197 C.3       1 <0>        -0.0164
      3 C3         -0.2409    2.0331    0.3061 C.3       1 <0>        -0.1667
      4 C4         -1.4515   -0.1522    0.2669 C.3       1 <0>        -0.1446
      5 C5         -2.1583    0.5568    1.4239 C.3       1 <0>         0.0854
      6 C6         -3.5207   -0.0533    1.6297 C.2       1 <0>         0.4898
      7 O1         -3.7329   -1.1951    1.2804 O.2       1 <0>        -0.4736
      8 N1         -4.5035    0.6699    2.2021 N.am      1 <0>        -0.6567
      9 C7         -5.7289    0.0727    2.4941 C.ar      1 <0>         0.1846
     10 C8         -5.7745   -1.2581    2.8990 C.ar      1 <0>        -0.1276
     11 C9         -6.9813   -1.8538    3.1887 C.ar      1 <0>        -0.0076
     12 C10        -8.1644   -1.1189    3.0757 C.ar      1 <0>        -0.2079
     13 C11        -8.1111    0.2191    2.6679 C.ar      1 <0>        -0.0806
     14 C12        -6.9054    0.8102    2.3856 C.ar      1 <0>        -0.1207
     15 C13        -9.5367    0.7097    2.6514 C.3       1 <0>         0.0917
     16 O2        -10.3548   -0.3906    3.0580 O.3       1 <0>        -0.3135
     17 C14        -9.5778   -1.4580    3.3079 C.2       1 <0>         0.5230
     18 O3         -9.9827   -2.5440    3.6725 O.2       1 <0>        -0.4457
     19 C15        -1.3304    0.3988    2.7008 C.3       1 <0>         0.4719
     20 F1         -0.0520    0.9289    2.4964 F         1 <0>        -0.1413
     21 F2         -1.9561    1.0813    3.7496 F         1 <0>        -0.1694
     22 F3         -1.2263   -0.9584    3.0241 F         1 <0>        -0.1581
     23 O4         -2.2996    1.9452    1.1166 O.3       1 <0>        -0.5168
     24 C16         0.9614   -0.0708    0.8328 C.ar      1 <0>        -0.0466
     25 C17         0.6955   -1.2061    1.5741 C.ar      1 <0>        -0.1836
     26 C18         1.6880   -1.7706    2.3569 C.ar      1 <0>         0.1054
     27 C19         2.9482   -1.1982    2.3985 C.ar      1 <0>        -0.1492
     28 C20         3.2168   -0.0632    1.6584 C.ar      1 <0>        -0.1060
     29 C21         2.2248    0.5002    0.8691 C.ar      1 <0>         0.0959
     30 O5          2.4894    1.6140    0.1358 O.3       1 <0>        -0.4877
     31 F4          1.4267   -2.8806    3.0812 F         1 <0>        -0.1354
     32 H1          1.1404    0.9408   -1.7215 H         1 <0>         0.0770
     33 H2          0.4120   -0.6832   -1.7093 H         1 <0>         0.0565
     34 H3         -0.5834    0.7357   -2.1145 H         1 <0>         0.0606
     35 H4         -1.0649    2.4633   -0.2631 H         1 <0>         0.0666
     36 H5         -0.4316    2.1575    1.3721 H         1 <0>         0.0942
     37 H6          0.6871    2.5399    0.0415 H         1 <0>         0.0585
     38 H7         -2.0807   -0.1124   -0.6223 H         1 <0>         0.1049
     39 H8         -1.2680   -1.1924    0.5359 H         1 <0>         0.1091
     40 H9         -4.3582    1.6059    2.4110 H         1 <0>         0.4241
     41 H10        -4.8597   -1.8257    2.9858 H         1 <0>         0.1471
     42 H11        -7.0136   -2.8867    3.5023 H         1 <0>         0.1449
     43 H12        -6.8690    1.8442    2.0760 H         1 <0>         0.1431
     44 H13        -9.6538    1.5393    3.3487 H         1 <0>         0.1200
     45 H14        -9.8106    1.0263    1.6450 H         1 <0>         0.1194
     46 H15        -2.8146    2.1207    0.3172 H         1 <0>         0.3994
     47 H16        -0.2871   -1.6531    1.5431 H         1 <0>         0.1536
     48 H17         3.7214   -1.6392    3.0102 H         1 <0>         0.1393
     49 H18         4.1997    0.3832    1.6914 H         1 <0>         0.1394
     50 H19         2.3174    2.4427    0.6034 H         1 <0>         0.3880
@<TRIPOS>BOND
     1    1    2 1
     2    1   32 1
     3    1   33 1
     4    1   34 1
     5    2    3 1
     6    2    4 1
     7    2   24 1
     8    3   35 1
     9    3   36 1
    10    3   37 1
    11    4    5 1
    12    4   38 1
    13    4   39 1
    14    5    6 1
    15    5   19 1
    16    5   23 1
    17    6    7 2
    18    6    8 am
    19    8    9 1
    20    8   40 1
    21    9   14 ar
    22    9   10 ar
    23   10   11 ar
    24   10   41 1
    25   11   12 ar
    26   11   42 1
    27   12   17 1
    28   12   13 ar
    29   13   14 ar
    30   13   15 1
    31   14   43 1
    32   15   16 1
    33   15   44 1
    34   15   45 1
    35   16   17 1
    36   17   18 2
    37   19   20 1
    38   19   21 1
    39   19   22 1
    40   23   46 1
    41   24   29 ar
    42   24   25 ar
    43   25   26 ar
    44   25   47 1
    45   26   27 ar
    46   26   31 1
    47   27   28 ar
    48   27   48 1
    49   28   29 ar
    50   28   49 1
    51   29   30 1
    52   30   50 1
@<TRIPOS>MOLECULE
CHEMBL366182
   58    61     0     0     0
SMALL
USER_CHARGES

@<TRIPOS>ATOM
      1 C1          0.0700    1.3514    0.7913 C.3       1 <0>        -0.1411
      2 C2          0.0341   -0.0644    0.2123 C.3       1 <0>        -0.0187
      3 C3          0.8978   -0.9892    1.0723 C.3       1 <0>        -0.1617
      4 C4         -1.4080   -0.5754    0.2035 C.3       1 <0>        -0.1331
      5 C5         -2.1448   -0.0441    1.4347 C.3       1 <0>         0.1446
      6 C6         -1.3658   -0.4198    2.6968 C.3       1 <0>        -0.0729
      7 C7         -2.1816   -0.0680    3.9140 C.ar      1 <0>         0.1176
      8 C8         -2.4507   -1.0391    4.8602 C.ar      1 <0>        -0.1670
      9 C9         -3.2021   -0.7051    5.9762 C.ar      1 <0>        -0.0704
     10 C10        -3.6568    0.5991    6.0995 C.ar      1 <0>        -0.1721
     11 C11        -3.3481    1.5160    5.1129 C.ar      1 <0>         0.0957
     12 N1         -2.6260    1.1640    4.0669 N.ar      1 <0>        -0.4575
     13 C12        -3.5230   -0.6506    1.4959 C.2       1 <0>         0.4917
     14 O1         -3.7401   -1.7179    0.9625 O.2       1 <0>        -0.5043
     15 N2         -4.5144   -0.0068    2.1433 N.am      1 <0>        -0.6625
     16 C13        -5.7561   -0.6202    2.3030 C.ar      1 <0>         0.1941
     17 C14        -5.8328   -1.9990    2.4767 C.ar      1 <0>        -0.1310
     18 C15        -7.0559   -2.6108    2.6349 C.ar      1 <0>        -0.0085
     19 C16        -8.2240   -1.8442    2.6209 C.ar      1 <0>        -0.2156
     20 C17        -8.1393   -0.4579    2.4458 C.ar      1 <0>        -0.0789
     21 C18        -6.9176    0.1482    2.2942 C.ar      1 <0>        -0.1293
     22 C19        -9.5561    0.0565    2.4804 C.3       1 <0>         0.0916
     23 O2        -10.4015   -1.0800    2.6774 O.3       1 <0>        -0.3146
     24 C20        -9.6480   -2.1894    2.7611 C.2       1 <0>         0.5234
     25 O3        -10.0790   -3.3130    2.9284 O.2       1 <0>        -0.4491
     26 O4         -2.2536    1.3781    1.3478 O.3       1 <0>        -0.5174
     27 C21         0.5685   -0.0445   -1.1967 C.ar      1 <0>        -0.0665
     28 C22        -0.2350   -0.4486   -2.2464 C.ar      1 <0>        -0.1274
     29 C23         0.2553   -0.4304   -3.5388 C.ar      1 <0>        -0.1169
     30 C24         1.5488   -0.0076   -3.7815 C.ar      1 <0>        -0.1257
     31 C25         2.3520    0.3973   -2.7318 C.ar      1 <0>        -0.1174
     32 C26         1.8604    0.3831   -1.4399 C.ar      1 <0>        -0.1143
     33 H1          1.0651    1.7747    0.6546 H         1 <0>         0.0442
     34 H2         -0.6630    1.9729    0.2772 H         1 <0>         0.0695
     35 H3         -0.1664    1.3150    1.8548 H         1 <0>         0.0790
     36 H4          0.4783   -1.0481    2.0766 H         1 <0>         0.0724
     37 H5          0.9180   -1.9844    0.6281 H         1 <0>         0.0588
     38 H6          1.9122   -0.5941    1.1249 H         1 <0>         0.0606
     39 H7         -1.9111   -0.2281   -0.6989 H         1 <0>         0.0829
     40 H8         -1.4074   -1.6652    0.2227 H         1 <0>         0.0910
     41 H9         -1.1623   -1.4906    2.6929 H         1 <0>         0.1017
     42 H10        -0.4242    0.1289    2.7195 H         1 <0>         0.1288
     43 H11        -2.0806   -2.0455    4.7313 H         1 <0>         0.1325
     44 H12        -3.4283   -1.4432    6.7315 H         1 <0>         0.1342
     45 H13        -4.2452    0.8945    6.9557 H         1 <0>         0.1343
     46 H14        -3.6985    2.5337    5.2015 H         1 <0>         0.1572
     47 H15        -4.3639    0.8833    2.4982 H         1 <0>         0.4232
     48 H16        -4.9296   -2.5911    2.4871 H         1 <0>         0.1458
     49 H17        -7.1123   -3.6810    2.7692 H         1 <0>         0.1414
     50 H18        -6.8572    1.2186    2.1641 H         1 <0>         0.1391
     51 H19        -9.6777    0.7592    3.3048 H         1 <0>         0.1185
     52 H20        -9.7994    0.5432    1.5359 H         1 <0>         0.1184
     53 H21        -2.7368    1.6888    0.5699 H         1 <0>         0.3743
     54 H22        -1.2456   -0.7788   -2.0568 H         1 <0>         0.1261
     55 H23        -0.3723   -0.7467   -4.3589 H         1 <0>         0.1202
     56 H24         1.9320    0.0059   -4.7911 H         1 <0>         0.1199
     57 H25         3.3628    0.7272   -2.9214 H         1 <0>         0.1207
     58 H26         2.4867    0.7030   -0.6203 H         1 <0>         0.1207
@<TRIPOS>BOND
     1    1    2 1
     2    1   33 1
     3    1   34 1
     4    1   35 1
     5    2    3 1
     6    2    4 1
     7    2   27 1
     8    3   36 1
     9    3   37 1
    10    3   38 1
    11    4    5 1
    12    4   39 1
    13    4   40 1
    14    5    6 1
    15    5   13 1
    16    5   26 1
    17    6    7 1
    18    6   41 1
    19    6   42 1
    20    7   12 ar
    21    7    8 ar
    22    8    9 ar
    23    8   43 1
    24    9   10 ar
    25    9   44 1
    26   10   11 ar
    27   10   45 1
    28   11   12 ar
    29   11   46 1
    30   13   14 2
    31   13   15 am
    32   15   16 1
    33   15   47 1
    34   16   21 ar
    35   16   17 ar
    36   17   18 ar
    37   17   48 1
    38   18   19 ar
    39   18   49 1
    40   19   24 1
    41   19   20 ar
    42   20   21 ar
    43   20   22 1
    44   21   50 1
    45   22   23 1
    46   22   51 1
    47   22   52 1
    48   23   24 1
    49   24   25 2
    50   26   53 1
    51   27   32 ar
    52   27   28 ar
    53   28   29 ar
    54   28   54 1
    55   29   30 ar
    56   29   55 1
    57   30   31 ar
    58   30   56 1
    59   31   32 ar
    60   31   57 1
    61   32   58 1
@<TRIPOS>MOLECULE
CHEMBL366182__1
   58    61     0     0     0
SMALL
USER_CHARGES

@<TRIPOS>ATOM
      1 C1         -0.0392   -0.3527    2.1767 C.3       1 <0>        -0.1406
      2 C2         -0.5682   -1.4693    1.2743 C.3       1 <0>        -0.0275
      3 C3         -1.8960   -1.9881    1.8300 C.3       1 <0>        -0.1617
      4 C4         -0.7850   -0.9236   -0.1385 C.3       1 <0>        -0.1272
      5 C5         -1.9061    0.1173   -0.1167 C.3       1 <0>         0.1418
      6 C6         -1.8702    0.9327   -1.4108 C.3       1 <0>        -0.0515
      7 C7         -0.5356    1.6216   -1.5336 C.ar      1 <0>         0.1306
      8 C8          0.2375    1.4174   -2.6611 C.ar      1 <0>        -0.1705
      9 C9          1.4637    2.0559   -2.7642 C.ar      1 <0>        -0.0754
     10 C10         1.8683    2.8797   -1.7247 C.ar      1 <0>        -0.1752
     11 C11         1.0417    3.0357   -0.6284 C.ar      1 <0>         0.0991
     12 N1         -0.1211    2.4165   -0.5667 N.ar      1 <0>        -0.4459
     13 C12        -3.2369   -0.5801    0.0008 C.2       1 <0>         0.5022
     14 O1         -3.6602   -1.2387   -0.9254 O.2       1 <0>        -0.5007
     15 N2         -3.9565   -0.4719    1.1352 N.am      1 <0>        -0.6732
     16 C13        -5.1304   -1.2081    1.2889 C.ar      1 <0>         0.1893
     17 C14        -5.9546   -1.4390    0.1915 C.ar      1 <0>        -0.1290
     18 C15        -7.1151   -2.1652    0.3365 C.ar      1 <0>        -0.0102
     19 C16        -7.4662   -2.6720    1.5905 C.ar      1 <0>        -0.2118
     20 C17        -6.6324   -2.4360    2.6899 C.ar      1 <0>        -0.0813
     21 C18        -5.4738   -1.7164    2.5393 C.ar      1 <0>        -0.1255
     22 C19        -7.2907   -3.1089    3.8676 C.3       1 <0>         0.0916
     23 O2         -8.4928   -3.7099    3.3786 O.3       1 <0>        -0.3146
     24 C20        -8.6112   -3.4675    2.0623 C.2       1 <0>         0.5228
     25 O3         -9.5290   -3.8495    1.3637 O.2       1 <0>        -0.4482
     26 O4         -1.7250    0.9892    1.0008 O.3       1 <0>        -0.5199
     27 C21         0.4321   -2.5956    1.2298 C.ar      1 <0>        -0.0673
     28 C22         0.9961   -2.9718    0.0252 C.ar      1 <0>        -0.1218
     29 C23         1.9136   -4.0050   -0.0157 C.ar      1 <0>        -0.1159
     30 C24         2.2675   -4.6615    1.1482 C.ar      1 <0>        -0.1235
     31 C25         1.7041   -4.2847    2.3530 C.ar      1 <0>        -0.1168
     32 C26         0.7898   -3.2487    2.3944 C.ar      1 <0>        -0.1159
     33 H1          0.7021   -0.7612    2.8636 H         1 <0>         0.0564
     34 H2          0.4214    0.4222    1.5639 H         1 <0>         0.0780
     35 H3         -0.8641    0.0763    2.7455 H         1 <0>         0.0579
     36 H4         -2.4710   -1.1550    2.2343 H         1 <0>         0.0592
     37 H5         -2.4622   -2.4664    1.0308 H         1 <0>         0.0620
     38 H6         -1.7007   -2.7124    2.6207 H         1 <0>         0.0689
     39 H7          0.1350   -0.4593   -0.4938 H         1 <0>         0.0888
     40 H8         -1.0606   -1.7406   -0.8052 H         1 <0>         0.0852
     41 H9         -2.0161    0.2687   -2.2628 H         1 <0>         0.1056
     42 H10        -2.6641    1.6793   -1.3920 H         1 <0>         0.0948
     43 H11        -0.1092    0.7683   -3.4516 H         1 <0>         0.1336
     44 H12         2.0891    1.9148   -3.6333 H         1 <0>         0.1337
     45 H13         2.8176    3.3925   -1.7712 H         1 <0>         0.1332
     46 H14         1.3496    3.6755    0.1854 H         1 <0>         0.1547
     47 H15        -3.6577    0.1182    1.8447 H         1 <0>         0.4146
     48 H16        -5.6829   -1.0467   -0.7774 H         1 <0>         0.1537
     49 H17        -7.7529   -2.3424   -0.5168 H         1 <0>         0.1422
     50 H18        -4.8314   -1.5410    3.3896 H         1 <0>         0.1402
     51 H19        -6.6309   -3.8739    4.2768 H         1 <0>         0.1180
     52 H20        -7.5277   -2.3711    4.6342 H         1 <0>         0.1188
     53 H21        -1.9401    0.5862    1.8531 H         1 <0>         0.3654
     54 H22         0.7197   -2.4589   -0.8841 H         1 <0>         0.1234
     55 H23         2.3538   -4.2994   -0.9569 H         1 <0>         0.1216
     56 H24         2.9838   -5.4691    1.1162 H         1 <0>         0.1212
     57 H25         1.9803   -4.7978    3.2623 H         1 <0>         0.1219
     58 H26         0.3525   -2.9518    3.3362 H         1 <0>         0.1211
@<TRIPOS>BOND
     1    1    2 1
     2    1   33 1
     3    1   34 1
     4    1   35 1
     5    2    3 1
     6    2    4 1
     7    2   27 1
     8    3   36 1
     9    3   37 1
    10    3   38 1
    11    4    5 1
    12    4   39 1
    13    4   40 1
    14    5    6 1
    15    5   13 1
    16    5   26 1
    17    6    7 1
    18    6   41 1
    19    6   42 1
    20    7   12 ar
    21    7    8 ar
    22    8    9 ar
    23    8   43 1
    24    9   10 ar
    25    9   44 1
    26   10   11 ar
    27   10   45 1
    28   11   12 ar
    29   11   46 1
    30   13   14 2
    31   13   15 am
    32   15   16 1
    33   15   47 1
    34   16   21 ar
    35   16   17 ar
    36   17   18 ar
    37   17   48 1
    38   18   19 ar
    39   18   49 1
    40   19   24 1
    41   19   20 ar
    42   20   21 ar
    43   20   22 1
    44   21   50 1
    45   22   23 1
    46   22   51 1
    47   22   52 1
    48   23   24 1
    49   24   25 2
    50   26   53 1
    51   27   32 ar
    52   27   28 ar
    53   28   29 ar
    54   28   54 1
    55   29   30 ar
    56   29   55 1
    57   30   31 ar
    58   30   56 1
    59   31   32 ar
    60   31   57 1
    61   32   58 1
@<TRIPOS>MOLECULE
CHEMBL117518
   34    36     0     0     0
SMALL
USER_CHARGES

@<TRIPOS>ATOM
      1 C1         -0.0187    1.5258    0.0104 C.3       1 <0>        -0.1287
      2 C2          0.0021   -0.0041    0.0020 C.3       1 <0>        -0.0542
      3 C3          0.7878   -0.5166   -1.1833 C.ar      1 <0>        -0.1297
      4 C4          0.6198   -0.3855   -2.5411 C.ar      1 <0>        -0.0436
      5 C5          1.5280   -0.9853   -3.4136 C.ar      1 <0>        -0.0757
      6 C6          2.5993   -1.7133   -2.8980 C.ar      1 <0>        -0.0652
      7 C7          2.7608   -1.8396   -1.5366 C.ar      1 <0>        -0.1348
      8 C8          1.8537   -1.2411   -0.6619 C.ar      1 <0>         0.1563
      9 N1          1.8079   -1.2293    0.7321 N.am      1 <0>        -0.6606
     10 C9          0.7606   -0.5309    1.2015 C.2       1 <0>         0.5351
     11 O1          0.4764   -0.3551    2.3675 O.2       1 <0>        -0.4898
     12 C10         1.3547   -0.8497   -4.8808 C.ar      1 <0>        -0.0022
     13 C11         2.2595   -1.4543   -5.7477 C.ar      1 <0>        -0.0778
     14 C12         2.0911   -1.3237   -7.1255 C.ar      1 <0>         0.0135
     15 C13         1.0157   -0.5872   -7.6277 C.ar      1 <0>        -0.1109
     16 C14         0.1206    0.0108   -6.7604 C.ar      1 <0>         0.1124
     17 C15         0.2819   -0.1213   -5.3924 C.ar      1 <0>        -0.1227
     18 F1         -0.9180    0.7226   -7.2501 F         1 <0>        -0.1283
     19 C16         3.0188   -1.9429   -8.0237 C.1       1 <0>         0.2482
     20 N2          3.7546   -2.4340   -8.7363 N.1       1 <0>        -0.3961
     21 C17        -1.4240   -0.5581   -0.0162 C.3       1 <0>        -0.1284
     22 H1          1.0039    1.9031    0.0027 H         1 <0>         0.0620
     23 H2         -0.5459    1.8868   -0.8726 H         1 <0>         0.0752
     24 H3         -0.5289    1.8773    0.9072 H         1 <0>         0.0733
     25 H4         -0.2134    0.1801   -2.9315 H         1 <0>         0.1349
     26 H5          3.3054   -2.1797   -3.5691 H         1 <0>         0.1380
     27 H6          3.5933   -2.4047   -1.1441 H         1 <0>         0.1335
     28 H7          2.4577   -1.6747    1.2980 H         1 <0>         0.4155
     29 H8          3.0896   -2.0225   -5.3547 H         1 <0>         0.1443
     30 H9          0.8836   -0.4845   -8.6946 H         1 <0>         0.1484
     31 H10        -0.4230    0.3442   -4.7194 H         1 <0>         0.1476
     32 H11        -1.9352   -0.2159   -0.9160 H         1 <0>         0.0751
     33 H12        -1.3906   -1.6476   -0.0094 H         1 <0>         0.0618
     34 H13        -1.9620   -0.2056    0.8638 H         1 <0>         0.0735
@<TRIPOS>BOND
     1    1    2 1
     2    1   22 1
     3    1   23 1
     4    1   24 1
     5    2   10 1
     6    2    3 1
     7    2   21 1
     8    3    8 ar
     9    3    4 ar
    10    4    5 ar
    11    4   25 1
    12    5    6 ar
    13    5   12 1
    14    6    7 ar
    15    6   26 1
    16    7    8 ar
    17    7   27 1
    18    8    9 1
    19    9   10 am
    20    9   28 1
    21   10   11 2
    22   12   17 ar
    23   12   13 ar
    24   13   14 ar
    25   13   29 1
    26   14   15 ar
    27   14   19 1
    28   15   16 ar
    29   15   30 1
    30   16   17 ar
    31   16   18 1
    32   17   31 1
    33   19   20 3
    34   21   32 1
    35   21   33 1
    36   21   34 1
@<TRIPOS>MOLECULE
CHEMBL330726
   50    53     0     0     0
SMALL
USER_CHARGES

@<TRIPOS>ATOM
      1 C1         -0.4876    1.4874   -0.1939 C.3       1 <0>        -0.1523
      2 C2         -0.2286   -0.0166   -0.0857 C.3       1 <0>        -0.1204
      3 C3          0.4790   -0.5045   -1.3514 C.3       1 <0>        -0.1354
      4 C4          0.7380   -2.0086   -1.2433 C.3       1 <0>         0.0988
      5 N1          1.4165   -2.4764   -2.4568 N.pl3     1 <0>        -0.4990
      6 C5          0.7181   -2.7769   -3.6181 C.ar      1 <0>         0.1282
      7 C6         -0.6402   -2.8719   -3.9013 C.ar      1 <0>        -0.1354
      8 C7         -1.0564   -3.1743   -5.1809 C.ar      1 <0>        -0.0939
      9 C8         -0.1320   -3.3884   -6.1913 C.ar      1 <0>        -0.1458
     10 C9          1.2181   -3.3086   -5.9256 C.ar      1 <0>        -0.0707
     11 C10         1.6493   -3.0090   -4.6353 C.ar      1 <0>        -0.0863
     12 C11         2.9787   -2.8814   -4.0112 C.ar      1 <0>        -0.1651
     13 C12         2.7721   -2.6473   -2.6349 C.ar      1 <0>         0.2209
     14 C13         3.8915   -2.7116   -1.8025 C.ar      1 <0>        -0.1605
     15 C14         5.1782   -2.6288   -2.3706 C.ar      1 <0>         0.2595
     16 C15         5.3602   -2.7579   -3.7374 C.ar      1 <0>        -0.2184
     17 C16         4.2631   -2.9229   -4.5522 C.ar      1 <0>        -0.0096
     18 N2          6.2649   -2.3226   -1.5493 N.pl3     1 <0>        -0.7281
     19 C17         6.0264   -1.7711   -0.2111 C.3       1 <0>         0.2152
     20 C18         4.8458   -2.4631    0.4135 C.2       1 <0>        -0.1921
     21 C19         3.8549   -2.9232   -0.3464 C.2       1 <0>        -0.0469
     22 C20         2.7807   -3.7491    0.3139 C.3       1 <0>        -0.1245
     23 C21         7.2657   -1.9960    0.6589 C.3       1 <0>        -0.1537
     24 C22         5.7473   -0.2707   -0.3154 C.3       1 <0>        -0.1559
     25 H1          0.4611    2.0124   -0.3050 H         1 <0>         0.0544
     26 H2         -1.1167    1.6863   -1.0615 H         1 <0>         0.0548
     27 H3         -0.9918    1.8351    0.7078 H         1 <0>         0.0568
     28 H4          0.4004   -0.2155    0.7819 H         1 <0>         0.0639
     29 H5         -1.1774   -0.5416    0.0254 H         1 <0>         0.0641
     30 H6         -0.1500   -0.3056   -2.2191 H         1 <0>         0.0684
     31 H7          1.4278    0.0204   -1.4625 H         1 <0>         0.0678
     32 H8          1.3671   -2.2075   -0.3757 H         1 <0>         0.0999
     33 H9         -0.2107   -2.5336   -1.1322 H         1 <0>         0.0824
     34 H10        -1.3723   -2.7111   -3.1242 H         1 <0>         0.1199
     35 H11        -2.1123   -3.2439   -5.3967 H         1 <0>         0.1263
     36 H12        -0.4708   -3.6180   -7.1909 H         1 <0>         0.1247
     37 H13         1.9373   -3.4776   -6.7128 H         1 <0>         0.1233
     38 H14         6.3535   -2.7293   -4.1586 H         1 <0>         0.1273
     39 H15         4.3953   -3.0845   -5.6119 H         1 <0>         0.1254
     40 H16         7.1736   -2.4747   -1.8635 H         1 <0>         0.4026
     41 H17         4.7995   -2.5872    1.4836 H         1 <0>         0.1215
     42 H18         3.1408   -4.7682    0.4544 H         1 <0>         0.0726
     43 H19         2.5323   -3.3148    1.2823 H         1 <0>         0.0694
     44 H20         1.8922   -3.7614   -0.3174 H         1 <0>         0.0662
     45 H21         8.1226   -1.4968    0.2066 H         1 <0>         0.0630
     46 H22         7.0903   -1.5867    1.6538 H         1 <0>         0.0738
     47 H23         7.4666   -3.0645    0.7358 H         1 <0>         0.0625
     48 H24         4.8664   -0.1074   -0.9362 H         1 <0>         0.0574
     49 H25         5.5705    0.1360    0.6803 H         1 <0>         0.0649
     50 H26         6.6059    0.2283   -0.7646 H         1 <0>         0.0584
@<TRIPOS>BOND
     1    1    2 1
     2    1   25 1
     3    1   26 1
     4    1   27 1
     5    2    3 1
     6    2   28 1
     7    2   29 1
     8    3    4 1
     9    3   30 1
    10    3   31 1
    11    4    5 1
    12    4   32 1
    13    4   33 1
    14    5   13 1
    15    5    6 1
    16    6   11 ar
    17    6    7 ar
    18    7    8 ar
    19    7   34 1
    20    8    9 ar
    21    8   35 1
    22    9   10 ar
    23    9   36 1
    24   10   11 ar
    25   10   37 1
    26   11   12 1
    27   12   17 ar
    28   12   13 ar
    29   13   14 ar
    30   14   21 1
    31   14   15 ar
    32   15   16 ar
    33   15   18 1
    34   16   17 ar
    35   16   38 1
    36   17   39 1
    37   18   19 1
    38   18   40 1
    39   19   20 1
    40   19   23 1
    41   19   24 1
    42   20   21 2
    43   20   41 1
    44   21   22 1
    45   22   42 1
    46   22   43 1
    47   22   44 1
    48   23   45 1
    49   23   46 1
    50   23   47 1
    51   24   48 1
    52   24   49 1
    53   24   50 1
@<TRIPOS>MOLECULE
CHEMBL25463
   38    40     0     0     0
SMALL
USER_CHARGES

@<TRIPOS>ATOM
      1 C1         -0.0187    1.5258    0.0104 C.3       1 <0>        -0.1439
      2 C2          0.0021   -0.0041    0.0020 C.3       1 <0>         0.1571
      3 C3         -1.4115   -0.5287    0.0287 C.ar      1 <0>        -0.1437
      4 C4         -2.4382    0.1744   -0.5580 C.ar      1 <0>        -0.0596
      5 C5         -3.7362   -0.3355   -0.5203 C.ar      1 <0>        -0.0499
      6 C6         -3.9881   -1.5531    0.1103 C.ar      1 <0>        -0.0709
      7 C7         -2.9549   -2.2537    0.6975 C.ar      1 <0>        -0.1231
      8 C8         -1.6653   -1.7436    0.6595 C.ar      1 <0>         0.1311
      9 N1         -0.6001   -2.4315    1.2503 N.pl3     1 <0>        -0.6087
     10 C9          0.5621   -1.7834    1.4723 C.2       1 <0>         0.5007
     11 O1          0.6935   -0.4804    1.1602 O.3       1 <0>        -0.2702
     12 S1          1.8840   -2.6270    2.1592 S.2       1 <0>        -0.4884
     13 C10        -4.8479    0.4178   -1.1506 C.ar      1 <0>        -0.0344
     14 C11        -4.5975    1.6328   -1.7862 C.ar      1 <0>        -0.1061
     15 C12        -5.6350    2.3298   -2.3710 C.ar      1 <0>        -0.1005
     16 C13        -6.9223    1.8253   -2.3276 C.ar      1 <0>        -0.1060
     17 C14        -7.1773    0.6193   -1.6979 C.ar      1 <0>        -0.0304
     18 C15        -6.1450   -0.0894   -1.1142 C.ar      1 <0>        -0.1018
     19 Cl1        -8.7957   -0.0068   -1.6472 Cl        1 <0>        -0.0626
     20 C16         0.7121   -0.5002   -1.2592 C.3       1 <0>        -0.1059
     21 C17         2.1263    0.0202   -1.2771 C.2       1 <0>        -0.1675
     22 C18         3.1298   -0.8139   -1.3931 C.2       1 <0>        -0.1633
     23 H1          1.0039    1.9031    0.0027 H         1 <0>         0.0850
     24 H2         -0.5459    1.8868   -0.8726 H         1 <0>         0.0888
     25 H3         -0.5289    1.8773    0.9072 H         1 <0>         0.0752
     26 H4         -2.2402    1.1175   -1.0455 H         1 <0>         0.1437
     27 H5         -4.9928   -1.9483    0.1389 H         1 <0>         0.1412
     28 H6         -3.1495   -3.1972    1.1856 H         1 <0>         0.1428
     29 H7         -3.5931    2.0282   -1.8207 H         1 <0>         0.1322
     30 H8         -5.4417    3.2715   -2.8633 H         1 <0>         0.1378
     31 H9         -7.7312    2.3745   -2.7863 H         1 <0>         0.1370
     32 H10        -6.3437   -1.0327   -0.6272 H         1 <0>         0.1373
     33 H11         0.7260   -1.5901   -1.2634 H         1 <0>         0.0703
     34 H12         0.1813   -0.1401   -2.1405 H         1 <0>         0.0987
     35 H13         2.3126    1.0808   -1.1942 H         1 <0>         0.1173
     36 H14         2.9435   -1.8745   -1.4760 H         1 <0>         0.0943
     37 H15         4.1433   -0.4410   -1.4060 H         1 <0>         0.1040
     38 H16        -0.6962   -3.3644    1.4979 H         1 <0>         0.4427
@<TRIPOS>BOND
     1    1    2 1
     2    1   23 1
     3    1   24 1
     4    1   25 1
     5    2   11 1
     6    2    3 1
     7    2   20 1
     8    3    8 ar
     9    3    4 ar
    10    4    5 ar
    11    4   26 1
    12    5    6 ar
    13    5   13 1
    14    6    7 ar
    15    6   27 1
    16    7    8 ar
    17    7   28 1
    18    8    9 1
    19    9   10 1
    20    9   38 1
    21   10   11 1
    22   10   12 2
    23   13   18 ar
    24   13   14 ar
    25   14   15 ar
    26   14   29 1
    27   15   16 ar
    28   15   30 1
    29   16   17 ar
    30   16   31 1
    31   17   18 ar
    32   17   19 1
    33   18   32 1
    34   20   21 1
    35   20   33 1
    36   20   34 1
    37   21   22 2
    38   21   35 1
    39   22   36 1
    40   22   37 1
@<TRIPOS>MOLECULE
CHEMBL25463__1
   38    40     0     0     0
SMALL
USER_CHARGES

@<TRIPOS>ATOM
      1 C1         -0.0187    1.5258    0.0104 C.3       1 <0>        -0.1413
      2 C2          0.0021   -0.0041    0.0020 C.3       1 <0>         0.1578
      3 C3          0.7214   -0.4929   -1.2299 C.ar      1 <0>        -0.1435
      4 C4          0.6864    0.2269   -2.4019 C.ar      1 <0>        -0.0597
      5 C5          1.3591   -0.2498   -3.5272 C.ar      1 <0>        -0.0495
      6 C6          2.0632   -1.4514   -3.4607 C.ar      1 <0>        -0.0709
      7 C7          2.0961   -2.1683   -2.2825 C.ar      1 <0>        -0.1226
      8 C8          1.4264   -1.6917   -1.1650 C.ar      1 <0>         0.1308
      9 N1          1.4460   -2.3971    0.0428 N.pl3     1 <0>        -0.6076
     10 C9          1.0627   -1.7750    1.1769 C.2       1 <0>         0.5003
     11 O1          0.6935   -0.4804    1.1602 O.3       1 <0>        -0.2725
     12 S1          1.0452   -2.6414    2.6534 S.2       1 <0>        -0.4890
     13 C10         1.3250    0.5211   -4.7941 C.ar      1 <0>        -0.0346
     14 C11         0.6261    1.7252   -4.8615 C.ar      1 <0>        -0.1060
     15 C12         0.5973    2.4387   -6.0423 C.ar      1 <0>        -0.1004
     16 C13         1.2603    1.9614   -7.1586 C.ar      1 <0>        -0.1059
     17 C14         1.9560    0.7663   -7.0980 C.ar      1 <0>        -0.0304
     18 C15         1.9961    0.0469   -5.9192 C.ar      1 <0>        -0.1016
     19 Cl1         2.7850    0.1738   -8.5036 Cl        1 <0>        -0.0625
     20 C16        -1.4324   -0.5362    0.0064 C.3       1 <0>        -0.1075
     21 C17        -2.1809    0.0468    1.1772 C.2       1 <0>        -0.1553
     22 C18        -3.3065    0.6877    0.9815 C.2       1 <0>        -0.1808
     23 H1          1.0039    1.9031    0.0027 H         1 <0>         0.0746
     24 H2         -0.5459    1.8868   -0.8726 H         1 <0>         0.0877
     25 H3         -0.5289    1.8773    0.9072 H         1 <0>         0.0853
     26 H4          0.1399    1.1572   -2.4507 H         1 <0>         0.1435
     27 H5          2.5834   -1.8210   -4.3320 H         1 <0>         0.1414
     28 H6          2.6414   -3.0991   -2.2305 H         1 <0>         0.1430
     29 H7          0.1077    2.0991   -3.9909 H         1 <0>         0.1321
     30 H8          0.0557    3.3716   -6.0952 H         1 <0>         0.1378
     31 H9          1.2347    2.5230   -8.0807 H         1 <0>         0.1370
     32 H10         2.5431   -0.8831   -5.8711 H         1 <0>         0.1374
     33 H11        -1.9288   -0.2504   -0.9210 H         1 <0>         0.0939
     34 H12        -1.4165   -1.6229    0.0900 H         1 <0>         0.0760
     35 H13        -1.7894   -0.0638    2.1776 H         1 <0>         0.1195
     36 H14        -3.6981    0.7983   -0.0189 H         1 <0>         0.0966
     37 H15        -3.8430    1.1055    1.8206 H         1 <0>         0.1034
     38 H16         1.7318   -3.3238    0.0646 H         1 <0>         0.4431
@<TRIPOS>BOND
     1    1    2 1
     2    1   23 1
     3    1   24 1
     4    1   25 1
     5    2   11 1
     6    2    3 1
     7    2   20 1
     8    3    8 ar
     9    3    4 ar
    10    4    5 ar
    11    4   26 1
    12    5    6 ar
    13    5   13 1
    14    6    7 ar
    15    6   27 1
    16    7    8 ar
    17    7   28 1
    18    8    9 1
    19    9   10 1
    20    9   38 1
    21   10   11 1
    22   10   12 2
    23   13   18 ar
    24   13   14 ar
    25   14   15 ar
    26   14   29 1
    27   15   16 ar
    28   15   30 1
    29   16   17 ar
    30   16   31 1
    31   17   18 ar
    32   17   19 1
    33   18   32 1
    34   20   21 1
    35   20   33 1
    36   20   34 1
    37   21   22 2
    38   21   35 1
    39   22   36 1
    40   22   37 1
@<TRIPOS>MOLECULE
CHEMBL258193
   47    50     0     0     0
SMALL
USER_CHARGES

@<TRIPOS>ATOM
      1 C1         -0.3194    1.3099   -0.2799 C.3       1 <0>        -0.1066
      2 C2         -0.2764   -0.1933   -0.1822 C.ar      1 <0>        -0.1545
      3 C3         -0.3750   -0.9584   -1.3237 C.ar      1 <0>        -0.0529
      4 C4         -0.3349   -2.3494   -1.2311 C.ar      1 <0>        -0.0866
      5 C5         -0.1971   -2.9588    0.0160 C.ar      1 <0>         0.0223
      6 C6         -0.0993   -2.1874    1.1600 C.ar      1 <0>        -0.1384
      7 C7         -0.1316   -0.8035    1.0605 C.ar      1 <0>         0.2356
      8 N1         -0.0202   -0.0011    2.2007 N.pl3     1 <0>        -0.7361
      9 C8         -0.1666   -0.6218    3.5241 C.3       1 <0>         0.1715
     10 C9          0.6481   -1.9219    3.5250 C.3       1 <0>        -0.1193
     11 C10         0.0433   -2.8775    2.4912 C.3       1 <0>        -0.0399
     12 C11         0.9673   -4.0871    2.3365 C.3       1 <0>        -0.1584
     13 C12        -1.6407   -0.9340    3.7898 C.3       1 <0>        -0.1618
     14 C13         0.3662    0.3243    4.6020 C.3       1 <0>        -0.1535
     15 Cl1        -0.1488   -4.6902    0.1328 Cl        1 <0>        -0.0544
     16 C14        -0.4388   -3.1780   -2.4545 C.ar      1 <0>         0.0084
     17 C15         0.5588   -3.1303   -3.4203 C.ar      1 <0>        -0.1325
     18 C16         0.4602   -3.9056   -4.5637 C.ar      1 <0>        -0.0978
     19 C17        -0.6235   -4.7344   -4.7639 C.ar      1 <0>        -0.1304
     20 C18        -1.6374   -4.8022   -3.8135 C.ar      1 <0>         0.0946
     21 C19        -1.5455   -4.0244   -2.6464 C.ar      1 <0>        -0.0841
     22 C20        -2.7433   -4.3244   -1.8625 C.2       1 <0>        -0.1914
     23 C21        -3.4542   -5.2255   -2.5607 C.2       1 <0>         0.0472
     24 N2         -2.8126   -5.5163   -3.7337 N.pl3     1 <0>        -0.5985
     25 H1         -3.1321   -6.1405   -4.4039 H         1 <0>         0.4147
     26 H2          0.6920    1.6945   -0.4117 H         1 <0>         0.0670
     27 H3         -0.9328    1.6012   -1.1325 H         1 <0>         0.0689
     28 H4         -0.7483    1.7214    0.6338 H         1 <0>         0.0612
     29 H5         -0.4833   -0.4825   -2.2872 H         1 <0>         0.1299
     30 H6          0.1513    0.9501    2.1190 H         1 <0>         0.4019
     31 H7          1.6847   -1.7035    3.2680 H         1 <0>         0.0720
     32 H8          0.6036   -2.3802    4.5130 H         1 <0>         0.0777
     33 H9         -0.9368   -3.2150    2.8283 H         1 <0>         0.0826
     34 H10         1.7117   -3.8797    1.5677 H         1 <0>         0.0585
     35 H11         1.4688   -4.2847    3.2839 H         1 <0>         0.0494
     36 H12         0.3798   -4.9585    2.0476 H         1 <0>         0.0740
     37 H13        -2.0101   -1.6196    3.0272 H         1 <0>         0.0628
     38 H14        -1.7432   -1.3942    4.7726 H         1 <0>         0.0653
     39 H15        -2.2189   -0.0105    3.7589 H         1 <0>         0.0579
     40 H16        -0.1970    1.2572    4.5772 H         1 <0>         0.0618
     41 H17         0.2550   -0.1413    5.5813 H         1 <0>         0.0737
     42 H18         1.4200    0.5310    4.4154 H         1 <0>         0.0629
     43 H19         1.4141   -2.4861   -3.2791 H         1 <0>         0.1224
     44 H20         1.2415   -3.8602   -5.3079 H         1 <0>         0.1258
     45 H21        -0.6856   -5.3324   -5.6611 H         1 <0>         0.1178
     46 H22        -3.0062   -3.9020   -0.9040 H         1 <0>         0.1408
     47 H23        -4.3965   -5.6499   -2.2473 H         1 <0>         0.1684
@<TRIPOS>BOND
     1    1    2 1
     2    1   26 1
     3    1   27 1
     4    1   28 1
     5    2    7 ar
     6    2    3 ar
     7    3    4 ar
     8    3   29 1
     9    4    5 ar
    10    4   16 1
    11    5    6 ar
    12    5   15 1
    13    6   11 1
    14    6    7 ar
    15    7    8 1
    16    8    9 1
    17    8   30 1
    18    9   10 1
    19    9   13 1
    20    9   14 1
    21   10   11 1
    22   10   31 1
    23   10   32 1
    24   11   12 1
    25   11   33 1
    26   12   34 1
    27   12   35 1
    28   12   36 1
    29   13   37 1
    30   13   38 1
    31   13   39 1
    32   14   40 1
    33   14   41 1
    34   14   42 1
    35   16   21 ar
    36   16   17 ar
    37   17   18 ar
    38   17   43 1
    39   18   19 ar
    40   18   44 1
    41   19   20 ar
    42   19   45 1
    43   20   24 1
    44   20   21 ar
    45   21   22 1
    46   22   23 2
    47   22   46 1
    48   23   24 1
    49   23   47 1
    50   24   25 1
@<TRIPOS>MOLECULE
CHEMBL258193__1
   47    50     0     0     0
SMALL
USER_CHARGES

@<TRIPOS>ATOM
      1 C1         -0.1483    1.5791    0.1584 C.3       1 <0>        -0.1033
      2 C2         -0.1215    0.0734    0.1008 C.ar      1 <0>        -0.1546
      3 C3         -0.1680   -0.5677   -1.1178 C.ar      1 <0>        -0.0530
      4 C4         -0.1422   -1.9613   -1.1689 C.ar      1 <0>        -0.0864
      5 C5         -0.0678   -2.6984    0.0129 C.ar      1 <0>         0.0224
      6 C6         -0.0203   -2.0512    1.2345 C.ar      1 <0>        -0.1380
      7 C7         -0.0439   -0.6643    1.2788 C.ar      1 <0>         0.2357
      8 N1         -0.0011    0.0136    2.5014 N.pl3     1 <0>        -0.7367
      9 C8          0.3770   -0.7272    3.7123 C.3       1 <0>         0.1726
     10 C9         -0.3793   -2.0621    3.7008 C.3       1 <0>        -0.1197
     11 C10         0.0650   -2.8772    2.4911 C.3       1 <0>        -0.0403
     12 C11        -0.8265   -4.1120    2.3452 C.3       1 <0>        -0.1567
     13 C12        -0.0110    0.0775    4.9544 C.3       1 <0>        -0.1534
     14 C13         1.8850   -0.9861    3.7117 C.3       1 <0>        -0.1617
     15 Cl1        -0.0351   -4.4330   -0.0494 Cl        1 <0>        -0.0544
     16 C14        -0.1944   -2.6570   -2.4755 C.ar      1 <0>         0.0083
     17 C15         0.8479   -2.5214   -3.3840 C.ar      1 <0>        -0.1326
     18 C16         0.7976   -3.1726   -4.6054 C.ar      1 <0>        -0.0979
     19 C17        -0.2813   -3.9630   -4.9406 C.ar      1 <0>        -0.1304
     20 C18        -1.3394   -4.1169   -4.0502 C.ar      1 <0>         0.0946
     21 C19        -1.2968   -3.4656   -2.8054 C.ar      1 <0>        -0.0839
     22 C20        -2.5324   -3.8309   -2.1131 C.2       1 <0>        -0.1912
     23 C21        -3.2160   -4.6460   -2.9335 C.2       1 <0>         0.0470
     24 N2         -2.5220   -4.8212   -4.0996 N.pl3     1 <0>        -0.5983
     25 H1         -2.8141   -5.3685   -4.8452 H         1 <0>         0.4147
     26 H2          0.8712    1.9625    0.1176 H         1 <0>         0.0683
     27 H3         -0.7159    1.9650   -0.6884 H         1 <0>         0.0684
     28 H4         -0.6198    1.8988    1.0878 H         1 <0>         0.0581
     29 H5         -0.2245    0.0069   -2.0304 H         1 <0>         0.1300
     30 H6         -0.2172    0.9580    2.5490 H         1 <0>         0.4013
     31 H7         -0.1611   -2.6134    4.6154 H         1 <0>         0.0781
     32 H8         -1.4508   -1.8741    3.6322 H         1 <0>         0.0706
     33 H9          1.0965   -3.1948    2.6435 H         1 <0>         0.0803
     34 H10        -0.2573   -4.9184    1.8827 H         1 <0>         0.0743
     35 H11        -1.1719   -4.4291    3.3292 H         1 <0>         0.0491
     36 H12        -1.6853   -3.8683    1.7198 H         1 <0>         0.0591
     37 H13        -1.0879    0.2458    4.9564 H         1 <0>         0.0627
     38 H14         0.2718   -0.4768    5.8494 H         1 <0>         0.0738
     39 H15         0.5067    1.0366    4.9423 H         1 <0>         0.0620
     40 H16         2.4169   -0.0350    3.6902 H         1 <0>         0.0582
     41 H17         2.1596   -1.5358    4.6119 H         1 <0>         0.0654
     42 H18         2.1526   -1.5720    2.8324 H         1 <0>         0.0625
     43 H19         1.7002   -1.9057   -3.1372 H         1 <0>         0.1225
     44 H20         1.6135   -3.0596   -5.3040 H         1 <0>         0.1258
     45 H21        -0.3054   -4.4638   -5.8972 H         1 <0>         0.1178
     46 H22        -2.8371   -3.5071   -1.1289 H         1 <0>         0.1407
     47 H23        -4.1751   -5.0893   -2.7097 H         1 <0>         0.1684
@<TRIPOS>BOND
     1    1    2 1
     2    1   26 1
     3    1   27 1
     4    1   28 1
     5    2    7 ar
     6    2    3 ar
     7    3    4 ar
     8    3   29 1
     9    4    5 ar
    10    4   16 1
    11    5    6 ar
    12    5   15 1
    13    6   11 1
    14    6    7 ar
    15    7    8 1
    16    8    9 1
    17    8   30 1
    18    9   10 1
    19    9   13 1
    20    9   14 1
    21   10   11 1
    22   10   31 1
    23   10   32 1
    24   11   12 1
    25   11   33 1
    26   12   34 1
    27   12   35 1
    28   12   36 1
    29   13   37 1
    30   13   38 1
    31   13   39 1
    32   14   40 1
    33   14   41 1
    34   14   42 1
    35   16   21 ar
    36   16   17 ar
    37   17   18 ar
    38   17   43 1
    39   18   19 ar
    40   18   44 1
    41   19   20 ar
    42   19   45 1
    43   20   24 1
    44   20   21 ar
    45   21   22 1
    46   22   23 2
    47   22   46 1
    48   23   24 1
    49   23   47 1
    50   24   25 1
@<TRIPOS>MOLECULE
CHEMBL260330
   75    81     0     0     0
SMALL
USER_CHARGES

@<TRIPOS>ATOM
      1 C1          0.1207    1.6094    0.3107 C.3       1 <0>        -0.1694
      2 C2          0.1867    0.0813    0.2756 C.3       1 <0>        -0.0390
      3 C3         -1.2172   -0.4964    0.3018 C.3       1 <0>        -0.1072
      4 C4         -1.9526    0.1520    1.4847 C.3       1 <0>        -0.0266
      5 H1         -2.9145   -0.3419    1.6229 H         1 <0>         0.1054
      6 C5         -1.1409    0.0279    2.7589 C.2       1 <0>        -0.0503
      7 C6         -1.7921   -0.3089    3.8705 C.2       1 <0>        -0.1253
      8 C7         -3.2818   -0.5652    3.8425 C.3       1 <0>        -0.0813
      9 C8         -3.5807   -1.8025    4.6946 C.3       1 <0>        -0.1666
     10 C9         -2.9323   -1.6661    6.0457 C.2       1 <0>         0.3868
     11 O1         -3.5014   -2.1025    7.0260 O.2       1 <0>        -0.4693
     12 C10        -1.6805   -1.0438    6.1955 C.2       1 <0>        -0.2451
     13 C11        -1.0963   -0.4169    5.1523 C.2       1 <0>         0.0247
     14 C12         0.2772    0.1988    5.2617 C.3       1 <0>        -0.0956
     15 C13         1.0554   -0.1748    4.0012 C.3       1 <0>        -0.1120
     16 C14         0.3445    0.2867    2.7403 C.3       1 <0>        -0.0471
     17 H2          0.5160    1.3549    2.6080 H         1 <0>         0.0959
     18 C15         0.9235   -0.4447    1.5369 C.3       1 <0>        -0.0814
     19 H3          0.7900   -1.5218    1.6379 H         1 <0>         0.0862
     20 C16         2.3836   -0.0914    1.2209 C.3       1 <0>        -0.1141
     21 C17         2.5110   -0.4396   -0.2879 C.3       1 <0>        -0.1043
     22 C18         1.0831   -0.3712   -0.8662 C.3       1 <0>        -0.1092
     23 C19         1.0356    0.6202   -2.0388 C.3       1 <0>        -0.1104
     24 C20         1.1618   -0.2886   -3.2897 C.3       1 <0>        -0.1225
     25 C21         0.3556   -1.5443   -2.8724 C.3       1 <0>        -0.1860
     26 C22         0.6670   -1.7210   -1.3950 C.2       1 <0>         0.3812
     27 O2          0.5949   -2.7481   -0.7640 O.2       1 <0>        -0.4359
     28 C23        -2.1833    1.6108    1.1852 C.ar      1 <0>        -0.0471
     29 C24        -2.6138    1.9966   -0.0714 C.ar      1 <0>        -0.1156
     30 C25        -2.8266    3.3312   -0.3512 C.ar      1 <0>        -0.1072
     31 C26        -2.6070    4.2908    0.6351 C.ar      1 <0>        -0.0378
     32 C27        -2.1734    3.8965    1.8993 C.ar      1 <0>        -0.1061
     33 C28        -1.9691    2.5586    2.1697 C.ar      1 <0>        -0.1196
     34 C29        -2.8336    5.7271    0.3401 C.ar      1 <0>        -0.1336
     35 C30        -2.6099    6.6973    1.3232 C.ar      1 <0>        -0.0333
     36 C31        -2.8347    8.0219    1.0017 C.ar      1 <0>        -0.1848
     37 C32        -3.2723    8.3453   -0.2776 C.ar      1 <0>         0.3203
     38 N1         -3.4744    7.4037   -1.1845 N.ar      1 <0>        -0.5362
     39 C33        -3.2663    6.1292   -0.9201 C.ar      1 <0>         0.1508
     40 O3         -3.4955    9.6439   -0.6001 O.3       1 <0>        -0.3069
     41 C34        -3.9442    9.9143   -1.9296 C.3       1 <0>         0.0392
     42 H4          1.1127    2.0204    0.1236 H         1 <0>         0.0519
     43 H5         -0.5689    1.9611   -0.4567 H         1 <0>         0.0710
     44 H6         -0.2289    1.9356    1.2903 H         1 <0>         0.0873
     45 H7         -1.7326   -0.2619   -0.6295 H         1 <0>         0.0732
     46 H8         -1.1716   -1.5767    0.4401 H         1 <0>         0.0768
     47 H9         -3.8091    0.2967    4.2512 H         1 <0>         0.0822
     48 H10        -3.6035   -0.7413    2.8160 H         1 <0>         0.0918
     49 H11        -4.6587   -1.9039    4.8193 H         1 <0>         0.0951
     50 H12        -3.1911   -2.6890    4.1942 H         1 <0>         0.0996
     51 H13        -1.1820   -1.0676    7.1533 H         1 <0>         0.1352
     52 H14         0.1913    1.2829    5.3353 H         1 <0>         0.0884
     53 H15         0.7885   -0.1926    6.1412 H         1 <0>         0.0853
     54 H16         2.0414    0.2882    4.0425 H         1 <0>         0.0774
     55 H17         1.1746   -1.2577    3.9654 H         1 <0>         0.0688
     56 H18         2.5680    0.9698    1.3882 H         1 <0>         0.0719
     57 H19         3.0646   -0.7002    1.8156 H         1 <0>         0.0689
     58 H20         3.1528    0.2861   -0.7873 H         1 <0>         0.0750
     59 H21         2.9162   -1.4444   -0.4078 H         1 <0>         0.0658
     60 H22         0.0870    1.1570   -2.0488 H         1 <0>         0.0799
     61 H23         1.8716    1.3176   -1.9854 H         1 <0>         0.0780
     62 H24         0.7130    0.1878   -4.1614 H         1 <0>         0.0789
     63 H25         2.2044   -0.5432   -3.4799 H         1 <0>         0.0730
     64 H26        -0.7115   -1.3777   -3.0192 H         1 <0>         0.1031
     65 H27         0.6873   -2.4149   -3.4381 H         1 <0>         0.0906
     66 H28        -2.7833    1.2521   -0.8352 H         1 <0>         0.1260
     67 H29        -3.1624    3.6314   -1.3328 H         1 <0>         0.1246
     68 H30        -2.0013    4.6361    2.6673 H         1 <0>         0.1229
     69 H31        -1.6376    2.2514    3.1506 H         1 <0>         0.1261
     70 H32        -2.2701    6.4174    2.3094 H         1 <0>         0.1439
     71 H33        -2.6728    8.7973    1.7358 H         1 <0>         0.1448
     72 H34        -3.4378    5.3891   -1.6877 H         1 <0>         0.1611
     73 H35        -3.2009    9.5588   -2.6432 H         1 <0>         0.0599
     74 H36        -4.8903    9.4021   -2.1050 H         1 <0>         0.0600
     75 H37        -4.0836   10.9880   -2.0547 H         1 <0>         0.0979
@<TRIPOS>BOND
     1    1    2 1
     2    1   42 1
     3    1   43 1
     4    1   44 1
     5    2   18 1
     6    2   22 1
     7    2    3 1
     8    3    4 1
     9    3   45 1
    10    3   46 1
    11    4    5 1
    12    4    6 1
    13    4   28 1
    14    6   16 1
    15    6    7 2
    16    7   13 1
    17    7    8 1
    18    8    9 1
    19    8   47 1
    20    8   48 1
    21    9   10 1
    22    9   49 1
    23    9   50 1
    24   10   11 2
    25   10   12 1
    26   12   13 2
    27   12   51 1
    28   13   14 1
    29   14   15 1
    30   14   52 1
    31   14   53 1
    32   15   16 1
    33   15   54 1
    34   15   55 1
    35   16   17 1
    36   16   18 1
    37   18   19 1
    38   18   20 1
    39   20   21 1
    40   20   56 1
    41   20   57 1
    42   21   22 1
    43   21   58 1
    44   21   59 1
    45   22   26 1
    46   22   23 1
    47   23   24 1
    48   23   60 1
    49   23   61 1
    50   24   25 1
    51   24   62 1
    52   24   63 1
    53   25   26 1
    54   25   64 1
    55   25   65 1
    56   26   27 2
    57   28   33 ar
    58   28   29 ar
    59   29   30 ar
    60   29   66 1
    61   30   31 ar
    62   30   67 1
    63   31   32 ar
    64   31   34 1
    65   32   33 ar
    66   32   68 1
    67   33   69 1
    68   34   39 ar
    69   34   35 ar
    70   35   36 ar
    71   35   70 1
    72   36   37 ar
    73   36   71 1
    74   37   38 ar
    75   37   40 1
    76   38   39 ar
    77   39   72 1
    78   40   41 1
    79   41   73 1
    80   41   74 1
    81   41   75 1
@<TRIPOS>MOLECULE
CHEMBL260330__1
   75    81     0     0     0
SMALL
USER_CHARGES

@<TRIPOS>ATOM
      1 C1          0.1123    1.6032    0.2875 C.3       1 <0>        -0.1755
      2 C2          0.1743    0.0748    0.2535 C.3       1 <0>        -0.0420
      3 C3         -1.2306   -0.4997    0.2968 C.3       1 <0>        -0.1002
      4 C4         -1.9514    0.1477    1.4893 C.3       1 <0>        -0.0281
      5 H1         -2.9109   -0.3471    1.6396 H         1 <0>         0.1057
      6 C5         -1.1236    0.0243    2.7534 C.2       1 <0>        -0.0495
      7 C6         -1.7572   -0.3196    3.8726 C.2       1 <0>        -0.1255
      8 C7         -3.2449   -0.5880    3.8666 C.3       1 <0>        -0.0813
      9 C8         -3.5187   -1.8342    4.7144 C.3       1 <0>        -0.1658
     10 C9         -2.8493   -1.7027    6.0556 C.2       1 <0>         0.3864
     11 O1         -3.3966   -2.1558    7.0408 O.2       1 <0>        -0.4693
     12 C10        -1.6029   -1.0664    6.1914 C.2       1 <0>        -0.2453
     13 C11        -1.0418   -0.4257    5.1441 C.2       1 <0>         0.0250
     14 C12         0.3246    0.2082    5.2368 C.3       1 <0>        -0.0963
     15 C13         1.0923   -0.1582    3.9677 C.3       1 <0>        -0.1108
     16 C14         0.3606    0.2890    2.7141 C.3       1 <0>        -0.0495
     17 H2          0.5259    1.3566    2.5695 H         1 <0>         0.0966
     18 C15         0.9230   -0.4515    1.5078 C.3       1 <0>        -0.0763
     19 H3          0.7831   -1.5273    1.6144 H         1 <0>         0.0829
     20 C16         2.3816   -0.1104    1.1747 C.3       1 <0>        -0.1153
     21 C17         2.4892   -0.4639   -0.3343 C.3       1 <0>        -0.1042
     22 C18         1.0563   -0.3812   -0.8979 C.3       1 <0>        -0.1088
     23 C19         0.6168   -1.7560   -1.4247 C.3       1 <0>        -0.1174
     24 C20         0.8866   -1.6652   -2.9496 C.3       1 <0>        -0.1207
     25 C21         0.5208   -0.1933   -3.2659 C.3       1 <0>        -0.1859
     26 C22         1.0031    0.5866   -2.0534 C.2       1 <0>         0.3797
     27 O2          1.2898    1.7593   -2.0216 O.2       1 <0>        -0.4303
     28 C23        -2.1872    1.6064    1.1932 C.ar      1 <0>        -0.0482
     29 C24        -2.6221    1.9932   -0.0616 C.ar      1 <0>        -0.1148
     30 C25        -2.8398    3.3277   -0.3384 C.ar      1 <0>        -0.1059
     31 C26        -2.6206    4.2861    0.6491 C.ar      1 <0>        -0.0372
     32 C27        -2.1825    3.8907    1.9115 C.ar      1 <0>        -0.1062
     33 C28        -1.9735    2.5529    2.1789 C.ar      1 <0>        -0.1202
     34 C29        -2.8524    5.7222    0.3574 C.ar      1 <0>        -0.1330
     35 C30        -2.6291    6.6913    1.3417 C.ar      1 <0>        -0.0333
     36 C31        -2.8588    8.0158    1.0232 C.ar      1 <0>        -0.1848
     37 C32        -3.3007    8.3401   -0.2543 C.ar      1 <0>         0.3199
     38 N1         -3.5022    7.3996   -1.1625 N.ar      1 <0>        -0.5359
     39 C33        -3.2895    6.1253   -0.9010 C.ar      1 <0>         0.1512
     40 O3         -3.5287    9.6387   -0.5738 O.3       1 <0>        -0.3070
     41 C34        -3.9816    9.9101   -1.9016 C.3       1 <0>         0.0392
     42 H4          1.1072    2.0113    0.1091 H         1 <0>         0.0625
     43 H5         -0.5694    1.9565   -0.4862 H         1 <0>         0.0655
     44 H6         -0.2451    1.9307    1.2638 H         1 <0>         0.0850
     45 H7         -1.7569   -0.2628   -0.6278 H         1 <0>         0.0740
     46 H8         -1.1855   -1.5802    0.4327 H         1 <0>         0.0782
     47 H9         -3.7727    0.2664    4.2906 H         1 <0>         0.0820
     48 H10        -3.5819   -0.7594    2.8443 H         1 <0>         0.0922
     49 H11        -4.5936   -1.9461    4.8561 H         1 <0>         0.0949
     50 H12        -3.1299   -2.7135    4.2008 H         1 <0>         0.0994
     51 H13        -1.0905   -1.0899    7.1418 H         1 <0>         0.1350
     52 H14         0.2255    1.2913    5.3092 H         1 <0>         0.0884
     53 H15         0.8512   -0.1748    6.1110 H         1 <0>         0.0853
     54 H16         2.0721    0.3186    3.9956 H         1 <0>         0.0771
     55 H17         1.2264   -1.2394    3.9338 H         1 <0>         0.0686
     56 H18         2.5759    0.9498    1.3368 H         1 <0>         0.0713
     57 H19         3.0646   -0.7227    1.7635 H         1 <0>         0.0703
     58 H20         3.1338    0.2534   -0.8423 H         1 <0>         0.0659
     59 H21         2.8820   -1.4734   -0.4557 H         1 <0>         0.0749
     60 H22         1.2160   -2.5482   -0.9757 H         1 <0>         0.0779
     61 H23        -0.4435   -1.9195   -1.2319 H         1 <0>         0.0822
     62 H24         1.9364   -1.8592   -3.1695 H         1 <0>         0.0729
     63 H25         0.2416   -2.3512   -3.4986 H         1 <0>         0.0788
     64 H26         1.0377    0.1426   -4.1648 H         1 <0>         0.0900
     65 H27        -0.5575   -0.0859   -3.3832 H         1 <0>         0.1021
     66 H28        -2.7914    1.2495   -0.8264 H         1 <0>         0.1245
     67 H29        -3.1790    3.6286   -1.3186 H         1 <0>         0.1238
     68 H30        -2.0107    4.6294    2.6804 H         1 <0>         0.1228
     69 H31        -1.6385    2.2450    3.1584 H         1 <0>         0.1257
     70 H32        -2.2859    6.4106    2.3265 H         1 <0>         0.1439
     71 H33        -2.6973    8.7903    1.7584 H         1 <0>         0.1449
     72 H34        -3.4607    5.3861   -1.6695 H         1 <0>         0.1608
     73 H35        -3.2390    9.5583   -2.6179 H         1 <0>         0.0599
     74 H36        -4.9265    9.3954   -2.0756 H         1 <0>         0.0598
     75 H37        -4.1246   10.9837   -2.0244 H         1 <0>         0.0978
@<TRIPOS>BOND
     1    1    2 1
     2    1   42 1
     3    1   43 1
     4    1   44 1
     5    2   18 1
     6    2   22 1
     7    2    3 1
     8    3    4 1
     9    3   45 1
    10    3   46 1
    11    4    5 1
    12    4    6 1
    13    4   28 1
    14    6   16 1
    15    6    7 2
    16    7   13 1
    17    7    8 1
    18    8    9 1
    19    8   47 1
    20    8   48 1
    21    9   10 1
    22    9   49 1
    23    9   50 1
    24   10   11 2
    25   10   12 1
    26   12   13 2
    27   12   51 1
    28   13   14 1
    29   14   15 1
    30   14   52 1
    31   14   53 1
    32   15   16 1
    33   15   54 1
    34   15   55 1
    35   16   17 1
    36   16   18 1
    37   18   19 1
    38   18   20 1
    39   20   21 1
    40   20   56 1
    41   20   57 1
    42   21   22 1
    43   21   58 1
    44   21   59 1
    45   22   26 1
    46   22   23 1
    47   23   24 1
    48   23   60 1
    49   23   61 1
    50   24   25 1
    51   24   62 1
    52   24   63 1
    53   25   26 1
    54   25   64 1
    55   25   65 1
    56   26   27 2
    57   28   33 ar
    58   28   29 ar
    59   29   30 ar
    60   29   66 1
    61   30   31 ar
    62   30   67 1
    63   31   32 ar
    64   31   34 1
    65   32   33 ar
    66   32   68 1
    67   33   69 1
    68   34   39 ar
    69   34   35 ar
    70   35   36 ar
    71   35   70 1
    72   36   37 ar
    73   36   71 1
    74   37   38 ar
    75   37   40 1
    76   38   39 ar
    77   39   72 1
    78   40   41 1
    79   41   73 1
    80   41   74 1
    81   41   75 1
@<TRIPOS>MOLECULE
CHEMBL286446
   43    46     0     0     0
SMALL
USER_CHARGES

@<TRIPOS>ATOM
      1 C1         -0.0199    1.5304    0.0157 C.3       1 <0>        -0.1821
      2 C2          0.0008   -0.0077    0.0050 C.3       1 <0>         0.1326
      3 C3         -1.4198   -0.5017    0.0143 C.ar      1 <0>        -0.0443
      4 C4         -2.0664   -0.5124    1.2635 C.ar      1 <0>        -0.0974
      5 C5         -3.4141   -0.8311    1.3708 C.ar      1 <0>        -0.0502
      6 C6         -4.1377   -1.1315    0.2357 C.ar      1 <0>        -0.1878
      7 C7         -3.5010   -1.1703   -0.9899 C.ar      1 <0>         0.2282
      8 C8         -2.1033   -0.9635   -1.0923 C.ar      1 <0>        -0.0950
      9 C9         -1.4972   -1.3966   -2.3643 C.2       1 <0>        -0.0613
     10 C10        -2.2229   -1.4043   -3.4794 C.2       1 <0>        -0.1755
     11 C11        -3.6788   -1.0319   -3.4525 C.3       1 <0>         0.2106
     12 N1         -4.2438   -1.3962   -2.1496 N.pl3     1 <0>        -0.7312
     13 C12        -3.8315    0.4726   -3.6784 C.3       1 <0>        -0.1576
     14 C13        -4.4194   -1.7888   -4.5570 C.3       1 <0>        -0.1534
     15 C14        -0.0994   -1.9499   -2.4585 C.3       1 <0>        -0.1199
     16 C15        -1.2713   -0.2167    2.4798 C.ar      1 <0>        -0.0829
     17 C16        -1.8788    0.0295    3.7042 C.ar      1 <0>        -0.0763
     18 C17        -1.1001    0.3064    4.8133 C.ar      1 <0>        -0.0576
     19 C18         0.2802    0.3423    4.7049 C.ar      1 <0>        -0.0820
     20 C19         0.8931    0.0998    3.4888 C.ar      1 <0>        -0.1270
     21 C20         0.1236   -0.1849    2.3760 C.ar      1 <0>         0.1281
     22 O1          0.6976   -0.4507    1.1741 O.3       1 <0>        -0.3041
     23 Cl1        -1.8547    0.6096    6.3470 Cl        1 <0>        -0.0673
     24 H1          1.0027    1.9076    0.0091 H         1 <0>         0.0739
     25 H2         -0.5465    1.8929   -0.8671 H         1 <0>         0.0747
     26 H3         -0.5306    1.8807    0.9127 H         1 <0>         0.0644
     27 H4          0.5544   -0.3216   -0.8637 H         1 <0>         0.1287
     28 H5         -3.8953   -0.8470    2.3385 H         1 <0>         0.1295
     29 H6         -5.1962   -1.3388    0.3023 H         1 <0>         0.1289
     30 H7         -1.7570   -1.6828   -4.4120 H         1 <0>         0.1261
     31 H8         -5.1297   -1.7948   -2.0925 H         1 <0>         0.4033
     32 H9         -3.4087    0.7393   -4.6470 H         1 <0>         0.0674
     33 H10        -4.8886    0.7375   -3.6580 H         1 <0>         0.0601
     34 H11        -3.3061    1.0134   -2.8913 H         1 <0>         0.0579
     35 H12        -4.3157   -2.8616   -4.3947 H         1 <0>         0.0636
     36 H13        -5.4752   -1.5187   -4.5374 H         1 <0>         0.0642
     37 H14        -3.9948   -1.5251   -5.5257 H         1 <0>         0.0756
     38 H15         0.1873   -2.3785   -1.4982 H         1 <0>         0.0696
     39 H16        -0.0657   -2.7231   -3.2260 H         1 <0>         0.0718
     40 H17         0.5918   -1.1485   -2.7196 H         1 <0>         0.0719
     41 H18        -2.9556    0.0067    3.7947 H         1 <0>         0.1378
     42 H19         0.8820    0.5610    5.5747 H         1 <0>         0.1410
     43 H20         1.9700    0.1355    3.4105 H         1 <0>         0.1432
@<TRIPOS>BOND
     1    1    2 1
     2    1   24 1
     3    1   25 1
     4    1   26 1
     5    2   22 1
     6    2    3 1
     7    2   27 1
     8    3    8 ar
     9    3    4 ar
    10    4    5 ar
    11    4   16 1
    12    5    6 ar
    13    5   28 1
    14    6    7 ar
    15    6   29 1
    16    7   12 1
    17    7    8 ar
    18    8    9 1
    19    9   10 2
    20    9   15 1
    21   10   11 1
    22   10   30 1
    23   11   12 1
    24   11   13 1
    25   11   14 1
    26   12   31 1
    27   13   32 1
    28   13   33 1
    29   13   34 1
    30   14   35 1
    31   14   36 1
    32   14   37 1
    33   15   38 1
    34   15   39 1
    35   15   40 1
    36   16   21 ar
    37   16   17 ar
    38   17   18 ar
    39   17   41 1
    40   18   19 ar
    41   18   23 1
    42   19   20 ar
    43   19   42 1
    44   20   21 ar
    45   20   43 1
    46   21   22 1
@<TRIPOS>MOLECULE
CHEMBL286446__1
   43    46     0     0     0
SMALL
USER_CHARGES

@<TRIPOS>ATOM
      1 C1         -0.0148    1.5394   -0.0020 C.3       1 <0>        -0.1829
      2 C2          0.0099    0.0081   -0.0055 C.3       1 <0>         0.1329
      3 C3          0.7129   -0.4828   -1.2438 C.ar      1 <0>        -0.0473
      4 C4          2.1159   -0.5063   -1.1950 C.ar      1 <0>        -0.0974
      5 C5          2.8672   -0.9244   -2.2867 C.ar      1 <0>        -0.0482
      6 C6          2.2246   -1.3922   -3.4121 C.ar      1 <0>        -0.1874
      7 C7          0.8428   -1.4201   -3.4560 C.ar      1 <0>         0.2296
      8 C8          0.0643   -0.8911   -2.3972 C.ar      1 <0>        -0.0925
      9 C9         -1.3766   -0.7520   -2.6677 C.2       1 <0>        -0.0632
     10 C10        -1.9595   -1.4779   -3.6199 C.2       1 <0>        -0.1740
     11 C11        -1.1760   -2.4316   -4.4741 C.3       1 <0>         0.2112
     12 N1          0.2128   -1.9783   -4.5677 N.pl3     1 <0>        -0.7320
     13 C12        -1.7899   -2.4818   -5.8761 C.3       1 <0>        -0.1536
     14 C13        -1.2196   -3.8309   -3.8560 C.3       1 <0>        -0.1589
     15 C14        -2.2605    0.2480   -1.9677 C.3       1 <0>        -0.1225
     16 C15         2.7929   -0.1279    0.0687 C.ar      1 <0>        -0.0822
     17 C16         4.1441    0.1884    0.1082 C.ar      1 <0>        -0.0768
     18 C17         4.7289    0.5406    1.3117 C.ar      1 <0>        -0.0562
     19 C18         3.9720    0.5804    2.4705 C.ar      1 <0>        -0.0831
     20 C19         2.6247    0.2673    2.4390 C.ar      1 <0>        -0.1256
     21 C20         2.0321   -0.0888    1.2429 C.ar      1 <0>         0.1252
     22 O1          0.7165   -0.4184    1.1692 O.3       1 <0>        -0.3067
     23 Cl1         6.4189    0.9346    1.3683 Cl        1 <0>        -0.0674
     24 H1          1.0068    1.9193   -0.0147 H         1 <0>         0.0661
     25 H2         -0.5461    1.8962   -0.8843 H         1 <0>         0.0777
     26 H3         -0.5226    1.8925    0.8955 H         1 <0>         0.0746
     27 H4         -0.9923   -0.3940    0.0604 H         1 <0>         0.1289
     28 H5          3.9454   -0.8845   -2.2531 H         1 <0>         0.1303
     29 H6          2.7973   -1.7377   -4.2615 H         1 <0>         0.1289
     30 H7         -3.0238   -1.3717   -3.7751 H         1 <0>         0.1261
     31 H8          0.7004   -2.0665   -5.4077 H         1 <0>         0.4033
     32 H9         -1.7611   -1.4872   -6.3211 H         1 <0>         0.0633
     33 H10        -1.2215   -3.1742   -6.4971 H         1 <0>         0.0639
     34 H11        -2.8239   -2.8197   -5.8082 H         1 <0>         0.0752
     35 H12        -2.2542   -4.1682   -3.7928 H         1 <0>         0.0673
     36 H13        -0.6499   -4.5210   -4.4784 H         1 <0>         0.0602
     37 H14        -0.7857   -3.8003   -2.8565 H         1 <0>         0.0578
     38 H15        -1.8406    1.2472   -2.0826 H         1 <0>         0.0721
     39 H16        -3.2581    0.2205   -2.4060 H         1 <0>         0.0709
     40 H17        -2.3221   -0.0006   -0.9082 H         1 <0>         0.0708
     41 H18         4.7378    0.1629   -0.7930 H         1 <0>         0.1377
     42 H19         4.4358    0.8578    3.4055 H         1 <0>         0.1408
     43 H20         2.0414    0.3019    3.3468 H         1 <0>         0.1430
@<TRIPOS>BOND
     1    1    2 1
     2    1   24 1
     3    1   25 1
     4    1   26 1
     5    2   22 1
     6    2    3 1
     7    2   27 1
     8    3    8 ar
     9    3    4 ar
    10    4    5 ar
    11    4   16 1
    12    5    6 ar
    13    5   28 1
    14    6    7 ar
    15    6   29 1
    16    7   12 1
    17    7    8 ar
    18    8    9 1
    19    9   10 2
    20    9   15 1
    21   10   11 1
    22   10   30 1
    23   11   12 1
    24   11   13 1
    25   11   14 1
    26   12   31 1
    27   13   32 1
    28   13   33 1
    29   13   34 1
    30   14   35 1
    31   14   36 1
    32   14   37 1
    33   15   38 1
    34   15   39 1
    35   15   40 1
    36   16   21 ar
    37   16   17 ar
    38   17   18 ar
    39   17   41 1
    40   18   19 ar
    41   18   23 1
    42   19   20 ar
    43   19   42 1
    44   20   21 ar
    45   20   43 1
    46   21   22 1
@<TRIPOS>MOLECULE
CHEMBL204571
   56    59     0     0     0
SMALL
USER_CHARGES

@<TRIPOS>ATOM
      1 C1         -0.0187    1.5258    0.0104 C.3       1 <0>        -0.1526
      2 C2          0.0021   -0.0041    0.0020 C.3       1 <0>         0.2170
      3 C3         -1.4111   -0.5231    0.0002 C.2       1 <0>        -0.1494
      4 C4         -1.7189   -1.6750    0.5824 C.2       1 <0>        -0.0424
      5 C5         -0.6642   -2.4569    1.2583 C.ar      1 <0>        -0.1184
      6 C6         -0.8558   -3.7902    1.5969 C.ar      1 <0>        -0.0490
      7 C7          0.1650   -4.4885    2.2375 C.ar      1 <0>        -0.0866
      8 C8          1.3704   -3.8523    2.5364 C.ar      1 <0>        -0.0443
      9 C9          1.5627   -2.5274    2.1981 C.ar      1 <0>        -0.1811
     10 C10         0.5547   -1.8261    1.5602 C.ar      1 <0>         0.2198
     11 N1          0.7127   -0.4886    1.1924 N.pl3     1 <0>        -0.7441
     12 C11        -0.0301   -5.9126    2.6035 C.ar      1 <0>        -0.0656
     13 C12        -1.1763   -6.3081    3.2893 C.ar      1 <0>        -0.0723
     14 C13        -1.3534   -7.6345    3.6271 C.ar      1 <0>        -0.1550
     15 C14        -0.3961   -8.5740    3.2871 C.ar      1 <0>        -0.0821
     16 C15         0.7447   -8.1924    2.6067 C.ar      1 <0>        -0.2079
     17 C16         0.9328   -6.8650    2.2566 C.ar      1 <0>         0.1360
     18 O1          2.0512   -6.4895    1.5828 O.3       1 <0>        -0.3074
     19 C17         2.9911   -7.5170    1.2622 C.3       1 <0>         0.0253
     20 C18        -3.1376   -2.1826    0.5543 C.3       1 <0>        -0.0522
     21 S1         -3.2701   -3.5415   -0.6399 S.3       1 <0>        -0.2268
     22 C19        -5.0142   -4.0329   -0.5539 C.3       1 <0>        -0.0538
     23 C20        -5.2635   -5.1700   -1.5109 C.ar      1 <0>        -0.0744
     24 C21        -5.6362   -4.9062   -2.8157 C.ar      1 <0>        -0.1011
     25 C22        -5.8649   -5.9492   -3.6935 C.ar      1 <0>        -0.1202
     26 C23        -5.7205   -7.2561   -3.2667 C.ar      1 <0>        -0.1142
     27 C24        -5.3469   -7.5199   -1.9622 C.ar      1 <0>        -0.1196
     28 C25        -5.1141   -6.4767   -1.0856 C.ar      1 <0>        -0.0998
     29 C26         0.7230   -0.4953   -1.2549 C.3       1 <0>        -0.1580
     30 H1          1.0039    1.9031    0.0027 H         1 <0>         0.0642
     31 H2         -0.5459    1.8868   -0.8726 H         1 <0>         0.0742
     32 H3         -0.5289    1.8773    0.9072 H         1 <0>         0.0632
     33 H4         -2.1872    0.0516   -0.4833 H         1 <0>         0.1237
     34 H5         -1.7892   -4.2816    1.3656 H         1 <0>         0.1341
     35 H6          2.1573   -4.3991    3.0347 H         1 <0>         0.1217
     36 H7          2.4974   -2.0394    2.4314 H         1 <0>         0.1229
     37 H8          1.2780    0.1059    1.7101 H         1 <0>         0.4018
     38 H9         -1.9254   -5.5775    3.5566 H         1 <0>         0.1277
     39 H10        -2.2422   -7.9402    4.1591 H         1 <0>         0.1240
     40 H11        -0.5409   -9.6102    3.5549 H         1 <0>         0.1237
     41 H12         1.4884   -8.9301    2.3440 H         1 <0>         0.1279
     42 H13         2.5094   -8.2672    0.6351 H         1 <0>         0.0549
     43 H14         3.8352   -7.0830    0.7262 H         1 <0>         0.0999
     44 H15         3.3457   -7.9847    2.1808 H         1 <0>         0.0549
     45 H16        -3.4147   -2.5416    1.5455 H         1 <0>         0.0905
     46 H17        -3.8070   -1.3741    0.2604 H         1 <0>         0.0890
     47 H18        -5.2519   -4.3530    0.4605 H         1 <0>         0.0898
     48 H19        -5.6442   -3.1855   -0.8245 H         1 <0>         0.0892
     49 H20        -5.7491   -3.8851   -3.1491 H         1 <0>         0.1233
     50 H21        -6.1568   -5.7431   -4.7127 H         1 <0>         0.1241
     51 H22        -5.8999   -8.0710   -3.9524 H         1 <0>         0.1231
     52 H23        -5.2344   -8.5409   -1.6287 H         1 <0>         0.1241
     53 H24        -4.8186   -6.6828   -0.0674 H         1 <0>         0.1237
     54 H25         1.7453   -0.1173   -1.2585 H         1 <0>         0.0603
     55 H26         0.7386   -1.5852   -1.2623 H         1 <0>         0.0590
     56 H27         0.1987   -0.1335   -2.1393 H         1 <0>         0.0655
@<TRIPOS>BOND
     1    1    2 1
     2    1   30 1
     3    1   31 1
     4    1   32 1
     5    2   11 1
     6    2    3 1
     7    2   29 1
     8    3    4 2
     9    3   33 1
    10    4    5 1
    11    4   20 1
    12    5   10 ar
    13    5    6 ar
    14    6    7 ar
    15    6   34 1
    16    7    8 ar
    17    7   12 1
    18    8    9 ar
    19    8   35 1
    20    9   10 ar
    21    9   36 1
    22   10   11 1
    23   11   37 1
    24   12   17 ar
    25   12   13 ar
    26   13   14 ar
    27   13   38 1
    28   14   15 ar
    29   14   39 1
    30   15   16 ar
    31   15   40 1
    32   16   17 ar
    33   16   41 1
    34   17   18 1
    35   18   19 1
    36   19   42 1
    37   19   43 1
    38   19   44 1
    39   20   21 1
    40   20   45 1
    41   20   46 1
    42   21   22 1
    43   22   23 1
    44   22   47 1
    45   22   48 1
    46   23   28 ar
    47   23   24 ar
    48   24   25 ar
    49   24   49 1
    50   25   26 ar
    51   25   50 1
    52   26   27 ar
    53   26   51 1
    54   27   28 ar
    55   27   52 1
    56   28   53 1
    57   29   54 1
    58   29   55 1
    59   29   56 1
@<TRIPOS>MOLECULE
CHEMBL1163480
   50    52     0     0     0
SMALL
USER_CHARGES

@<TRIPOS>ATOM
      1 C1          0.6822    0.1984   -2.5944 C.ar      1 <0>        -0.0474
      2 C2          1.9199    0.4604   -3.1410 C.ar      1 <0>        -0.1218
      3 C3          2.9483   -0.4587   -3.0080 C.ar      1 <0>        -0.0049
      4 C4          2.7410   -1.6466   -2.3254 C.ar      1 <0>        -0.1230
      5 C5          1.5086   -1.9221   -1.7736 C.ar      1 <0>        -0.0619
      6 C6          0.4655   -0.9989   -1.9039 C.ar      1 <0>        -0.1695
      7 C7         -0.8525   -1.2855   -1.3173 C.2       1 <0>         0.3943
      8 O1         -1.7545   -0.4831   -1.4316 O.2       1 <0>        -0.4324
      9 C8         -1.0820   -2.5763   -0.5742 C.3       1 <0>        -0.1803
     10 C9         -2.5254   -2.6243   -0.0691 C.3       1 <0>         0.1568
     11 C10        -2.7237   -3.8746    0.7903 C.3       1 <0>        -0.1011
     12 C11        -2.5713   -5.1224   -0.0820 C.3       1 <0>        -0.1150
     13 C12        -2.7696   -6.3726    0.7774 C.3       1 <0>        -0.1189
     14 C13        -4.1691   -6.3501    1.3952 C.3       1 <0>        -0.1208
     15 C14        -4.3215   -5.1023    2.2675 C.3       1 <0>        -0.1196
     16 C15        -4.1232   -3.8521    1.4081 C.3       1 <0>        -0.1145
     17 N1         -3.4414   -2.6667   -1.2116 N.pl3     1 <0>        -0.7136
     18 C16        -4.6245   -1.9247   -1.1861 C.ar      1 <0>         0.2838
     19 C17        -4.9917   -1.2394   -0.0349 C.ar      1 <0>        -0.1938
     20 C18        -6.1619   -0.5063   -0.0132 C.ar      1 <0>        -0.0053
     21 C19        -6.9677   -0.4539   -1.1358 C.ar      1 <0>        -0.1138
     22 C20        -6.6052   -1.1350   -2.2834 C.ar      1 <0>        -0.0043
     23 C21        -5.4337   -1.8657   -2.3136 C.ar      1 <0>        -0.1980
     24 N2         -8.2213    0.3324   -1.1088 N.pl3     1 <0>         0.0461
     25 O2         -8.5398    0.9280   -0.1061 O.2       1 <0>        -0.1759
     26 O3         -8.9269    0.3791   -2.0894 O.3       1 <0>        -0.1766
     27 Cl1         4.5039   -0.1204   -3.7004 Cl        1 <0>        -0.0559
     28 H1         -0.1172    0.9175   -2.6950 H         1 <0>         0.1433
     29 H2          2.0885    1.3840   -3.6747 H         1 <0>         0.1418
     30 H3          3.5471   -2.3585   -2.2259 H         1 <0>         0.1421
     31 H4          1.3483   -2.8485   -1.2421 H         1 <0>         0.1416
     32 H5         -0.9032   -3.4177   -1.2436 H         1 <0>         0.1087
     33 H6         -0.3985   -2.6343    0.2729 H         1 <0>         0.1173
     34 H7         -2.7309   -1.7363    0.5287 H         1 <0>         0.0987
     35 H8         -1.9765   -3.8924    1.5836 H         1 <0>         0.0838
     36 H9         -3.3185   -5.1045   -0.8753 H         1 <0>         0.0642
     37 H10        -1.5743   -5.1384   -0.5222 H         1 <0>         0.0623
     38 H11        -2.6610   -7.2615    0.1560 H         1 <0>         0.0616
     39 H12        -2.0224   -6.3904    1.5707 H         1 <0>         0.0623
     40 H13        -4.9163   -6.3323    0.6019 H         1 <0>         0.0600
     41 H14        -4.3103   -7.2408    2.0074 H         1 <0>         0.0612
     42 H15        -5.3185   -5.0863    2.7077 H         1 <0>         0.0623
     43 H16        -3.5743   -5.1202    3.0609 H         1 <0>         0.0619
     44 H17        -4.2318   -2.9631    2.0295 H         1 <0>         0.0622
     45 H18        -4.8704   -3.8343    0.6148 H         1 <0>         0.0668
     46 H19        -3.2264   -3.2101   -1.9858 H         1 <0>         0.4037
     47 H20        -4.3629   -1.2801    0.8423 H         1 <0>         0.1430
     48 H21        -6.4481    0.0265    0.8815 H         1 <0>         0.1490
     49 H22        -7.2370   -1.0923   -3.1583 H         1 <0>         0.1494
     50 H23        -5.1490   -2.3940   -3.2116 H         1 <0>         0.1402
@<TRIPOS>BOND
     1    1    6 ar
     2    1    2 ar
     3    1   28 1
     4    2    3 ar
     5    2   29 1
     6    3    4 ar
     7    3   27 1
     8    4    5 ar
     9    4   30 1
    10    5    6 ar
    11    5   31 1
    12    6    7 1
    13    7    8 2
    14    7    9 1
    15    9   10 1
    16    9   32 1
    17    9   33 1
    18   10   11 1
    19   10   17 1
    20   10   34 1
    21   11   16 1
    22   11   12 1
    23   11   35 1
    24   12   13 1
    25   12   36 1
    26   12   37 1
    27   13   14 1
    28   13   38 1
    29   13   39 1
    30   14   15 1
    31   14   40 1
    32   14   41 1
    33   15   16 1
    34   15   42 1
    35   15   43 1
    36   16   44 1
    37   16   45 1
    38   17   18 1
    39   17   46 1
    40   18   23 ar
    41   18   19 ar
    42   19   20 ar
    43   19   47 1
    44   20   21 ar
    45   20   48 1
    46   21   22 ar
    47   21   24 1
    48   22   23 ar
    49   22   49 1
    50   23   50 1
    51   24   25 2
    52   24   26 1
@<TRIPOS>MOLECULE
CHEMBL1163480__1
   50    52     0     0     0
SMALL
USER_CHARGES

@<TRIPOS>ATOM
      1 C1          0.6768    0.8884    0.5952 C.ar      1 <0>        -0.0475
      2 C2          1.9628    1.3692    0.7140 C.ar      1 <0>        -0.1217
      3 C3          3.0392    0.4980    0.6635 C.ar      1 <0>        -0.0050
      4 C4          2.8315   -0.8614    0.4934 C.ar      1 <0>        -0.1229
      5 C5          1.5510   -1.3565    0.3732 C.ar      1 <0>        -0.0620
      6 C6          0.4594   -0.4829    0.4233 C.ar      1 <0>        -0.1694
      7 C7         -0.9103   -1.0037    0.2962 C.2       1 <0>         0.3947
      8 O1         -1.8544   -0.2440    0.3405 O.2       1 <0>        -0.4327
      9 C8         -1.1404   -2.4815    0.1111 C.3       1 <0>        -0.1821
     10 C9         -2.6422   -2.7547    0.0069 C.3       1 <0>         0.1565
     11 C10        -2.8708   -4.2350   -0.3051 C.3       1 <0>        -0.0996
     12 C11        -2.2778   -4.5646   -1.6765 C.3       1 <0>        -0.1166
     13 C12        -2.5065   -6.0449   -1.9886 C.3       1 <0>        -0.1184
     14 C13        -4.0081   -6.3380   -1.9984 C.3       1 <0>        -0.1221
     15 C14        -4.6010   -6.0085   -0.6270 C.3       1 <0>        -0.1195
     16 C15        -4.3724   -4.5282   -0.3149 C.3       1 <0>        -0.1120
     17 N1         -3.2891   -2.4179    1.2775 N.pl3     1 <0>        -0.7172
     18 C16        -4.4903   -1.7051    1.2822 C.ar      1 <0>         0.2844
     19 C17        -5.1550   -1.4534    0.0887 C.ar      1 <0>        -0.1921
     20 C18        -6.3427   -0.7487    0.0969 C.ar      1 <0>        -0.0054
     21 C19        -6.8703   -0.2938    1.2915 C.ar      1 <0>        -0.1131
     22 C20        -6.2112   -0.5427    2.4814 C.ar      1 <0>        -0.0046
     23 C21        -5.0258   -1.2513    2.4809 C.ar      1 <0>        -0.1972
     24 N2         -8.1431    0.4614    1.2965 N.pl3     1 <0>         0.0460
     25 O2         -8.7203    0.6801    0.2569 O.2       1 <0>        -0.1758
     26 O3         -8.6056    0.8597    2.3401 O.3       1 <0>        -0.1761
     27 Cl1         4.6558    1.1127    0.8134 Cl        1 <0>        -0.0559
     28 H1         -0.1614    1.5680    0.6392 H         1 <0>         0.1432
     29 H2          2.1322    2.4276    0.8464 H         1 <0>         0.1419
     30 H3          3.6751   -1.5345    0.4546 H         1 <0>         0.1421
     31 H4          1.3905   -2.4162    0.2403 H         1 <0>         0.1415
     32 H5         -0.6463   -2.8146   -0.8015 H         1 <0>         0.1189
     33 H6         -0.7310   -3.0226    0.9642 H         1 <0>         0.1069
     34 H7         -3.0679   -2.1454   -0.7903 H         1 <0>         0.0992
     35 H8         -2.3863   -4.8459    0.4565 H         1 <0>         0.0772
     36 H9         -2.7623   -3.9537   -2.4382 H         1 <0>         0.0657
     37 H10        -1.2081   -4.3558   -1.6695 H         1 <0>         0.0656
     38 H11        -2.0840   -6.2797   -2.9656 H         1 <0>         0.0639
     39 H12        -2.0220   -6.6558   -1.2269 H         1 <0>         0.0621
     40 H13        -4.4926   -5.7271   -2.7600 H         1 <0>         0.0621
     41 H14        -4.1709   -7.3926   -2.2207 H         1 <0>         0.0617
     42 H15        -5.6708   -6.2173   -0.6340 H         1 <0>         0.0621
     43 H16        -4.1165   -6.6194    0.1347 H         1 <0>         0.0606
     44 H17        -4.7948   -4.2934    0.6621 H         1 <0>         0.0646
     45 H18        -4.8569   -3.9172   -1.0766 H         1 <0>         0.0630
     46 H19        -2.8833   -2.6899    2.1154 H         1 <0>         0.4039
     47 H20        -4.7433   -1.8081   -0.8447 H         1 <0>         0.1420
     48 H21        -6.8599   -0.5524   -0.8306 H         1 <0>         0.1490
     49 H22        -6.6258   -0.1857    3.4126 H         1 <0>         0.1497
     50 H23        -4.5136   -1.4489    3.4110 H         1 <0>         0.1405
@<TRIPOS>BOND
     1    1    6 ar
     2    1    2 ar
     3    1   28 1
     4    2    3 ar
     5    2   29 1
     6    3    4 ar
     7    3   27 1
     8    4    5 ar
     9    4   30 1
    10    5    6 ar
    11    5   31 1
    12    6    7 1
    13    7    8 2
    14    7    9 1
    15    9   10 1
    16    9   32 1
    17    9   33 1
    18   10   11 1
    19   10   17 1
    20   10   34 1
    21   11   16 1
    22   11   12 1
    23   11   35 1
    24   12   13 1
    25   12   36 1
    26   12   37 1
    27   13   14 1
    28   13   38 1
    29   13   39 1
    30   14   15 1
    31   14   40 1
    32   14   41 1
    33   15   16 1
    34   15   42 1
    35   15   43 1
    36   16   44 1
    37   16   45 1
    38   17   18 1
    39   17   46 1
    40   18   23 ar
    41   18   19 ar
    42   19   20 ar
    43   19   47 1
    44   20   21 ar
    45   20   48 1
    46   21   22 ar
    47   21   24 1
    48   22   23 ar
    49   22   49 1
    50   23   50 1
    51   24   25 2
    52   24   26 1
@<TRIPOS>MOLECULE
CHEMBL235209
   46    49     0     0     0
SMALL
USER_CHARGES

@<TRIPOS>ATOM
      1 C1         -0.0511    1.5237   -0.0609 C.3       1 <0>        -0.1435
      2 C2          0.0021   -0.0041    0.0020 C.3       1 <0>         0.0960
      3 C3          0.6884   -0.4309    1.2740 C.ar      1 <0>        -0.0546
      4 C4          1.7620   -1.3002    1.2213 C.ar      1 <0>        -0.0836
      5 C5          2.3924   -1.6920    2.3870 C.ar      1 <0>        -0.1550
      6 C6          1.9484   -1.2134    3.6081 C.ar      1 <0>         0.0834
      7 C7          0.8730   -0.3427    3.6596 C.ar      1 <0>        -0.1545
      8 C8          0.2475    0.0517    2.4921 C.ar      1 <0>        -0.0792
      9 F1          2.5636   -1.5960    4.7484 F         1 <0>        -0.1480
     10 C9         -1.3996   -0.5570   -0.0224 C.2       1 <0>        -0.1828
     11 C10        -2.5363    0.1523   -0.1097 C.2       1 <0>         0.0430
     12 N1         -3.6129   -0.6909   -0.1045 N.pl3     1 <0>        -0.5716
     13 H1         -4.5402   -0.4114   -0.1588 H         1 <0>         0.4128
     14 C11        -3.1834   -1.9974   -0.0112 C.ar      1 <0>         0.0569
     15 C12        -1.7797   -1.9702    0.0383 C.ar      1 <0>        -0.0530
     16 C13        -1.0609   -3.1656    0.1304 C.ar      1 <0>        -0.1898
     17 C14        -1.7256   -4.3588    0.1687 C.ar      1 <0>        -0.0720
     18 C15        -3.1115   -4.3970    0.1170 C.ar      1 <0>        -0.2788
     19 C16        -3.8455   -3.2264    0.0332 C.ar      1 <0>         0.2923
     20 N2         -5.2420   -3.2748   -0.0207 N.2       1 <0>        -1.1118
     21 S1         -6.0225   -4.7344    0.0322 S.o2      1 <0>         2.5317
     22 O1         -5.6123   -5.4080   -1.1498 O.2       1 <0>        -1.0291
     23 O2         -5.7123   -5.2652    1.3133 O.2       1 <0>        -1.0291
     24 C17        -7.7867   -4.3232   -0.0632 C.3       1 <0>        -0.6398
     25 C18         0.7816   -0.5372   -1.2017 C.3       1 <0>        -0.1308
     26 C19         1.1611    0.4620   -2.2964 C.3       1 <0>        -0.1819
     27 C20         2.2360   -0.0881   -1.3567 C.3       1 <0>        -0.1865
     28 H2          0.9627    1.9236   -0.0432 H         1 <0>         0.0561
     29 H3         -0.5475    1.8324   -0.9809 H         1 <0>         0.0648
     30 H4         -0.6065    1.9035    0.7967 H         1 <0>         0.0586
     31 H5          2.1079   -1.6737    0.2688 H         1 <0>         0.1377
     32 H6          3.2309   -2.3714    2.3457 H         1 <0>         0.1288
     33 H7          0.5256    0.0309    4.6115 H         1 <0>         0.1284
     34 H8         -0.5885    0.7343    2.5317 H         1 <0>         0.1281
     35 H9         -2.5921    1.2290   -0.1741 H         1 <0>         0.1537
     36 H10         0.0181   -3.1460    0.1708 H         1 <0>         0.0979
     37 H11        -1.1671   -5.2804    0.2395 H         1 <0>         0.0969
     38 H12        -3.6224   -5.3480    0.1483 H         1 <0>         0.1004
     39 H13        -7.9863   -3.7928   -0.9943 H         1 <0>         0.1133
     40 H14        -8.3756   -5.2400   -0.0340 H         1 <0>         0.1003
     41 H15        -8.0584   -3.6898    0.7812 H         1 <0>         0.1133
     42 H16         0.5327   -1.5524   -1.5108 H         1 <0>         0.1123
     43 H17         1.1618    0.1043   -3.3261 H         1 <0>         0.0882
     44 H18         0.8555    1.4992   -2.1591 H         1 <0>         0.0977
     45 H19         2.6374    0.5872   -0.6012 H         1 <0>         0.0925
     46 H20         2.9438   -0.8076   -1.7682 H         1 <0>         0.0903
@<TRIPOS>BOND
     1    1    2 1
     2    1   28 1
     3    1   29 1
     4    1   30 1
     5    2    3 1
     6    2   10 1
     7    2   25 1
     8    3    8 ar
     9    3    4 ar
    10    4    5 ar
    11    4   31 1
    12    5    6 ar
    13    5   32 1
    14    6    7 ar
    15    6    9 1
    16    7    8 ar
    17    7   33 1
    18    8   34 1
    19   10   15 1
    20   10   11 2
    21   11   12 1
    22   11   35 1
    23   12   13 1
    24   12   14 1
    25   14   19 ar
    26   14   15 ar
    27   15   16 ar
    28   16   17 ar
    29   16   36 1
    30   17   18 ar
    31   17   37 1
    32   18   19 ar
    33   18   38 1
    34   19   20 1
    35   20   21 1
    36   21   22 2
    37   21   23 2
    38   21   24 1
    39   24   39 1
    40   24   40 1
    41   24   41 1
    42   25   27 1
    43   25   26 1
    44   25   42 1
    45   26   27 1
    46   26   43 1
    47   26   44 1
    48   27   45 1
    49   27   46 1
@<TRIPOS>MOLECULE
CHEMBL235209__1
   47    50     0     0     0
SMALL
USER_CHARGES

@<TRIPOS>ATOM
      1 C1         -0.0337    1.4979   -0.3356 C.3       1 <0>        -0.1488
      2 C2          0.0158   -0.0288   -0.2472 C.3       1 <0>         0.0905
      3 C3          0.7269   -0.4359    1.0175 C.ar      1 <0>        -0.0703
      4 C4          1.7969   -1.3093    0.9577 C.ar      1 <0>        -0.0854
      5 C5          2.4501   -1.6830    2.1169 C.ar      1 <0>        -0.1533
      6 C6          2.0324   -1.1824    3.3384 C.ar      1 <0>         0.0936
      7 C7          0.9607   -0.3078    3.3970 C.ar      1 <0>        -0.1537
      8 C8          0.3124    0.0686    2.2360 C.ar      1 <0>        -0.0801
      9 F1          2.6699   -1.5474    4.4722 F         1 <0>        -0.1420
     10 C9         -1.3879   -0.5769   -0.2331 C.2       1 <0>        -0.1504
     11 C10        -2.5215    0.1273   -0.3799 C.2       1 <0>         0.0617
     12 N1         -3.6013   -0.7091   -0.3123 N.pl3     1 <0>        -0.5914
     13 H1         -4.5274   -0.4315   -0.3918 H         1 <0>         0.4159
     14 C11        -3.1771   -2.0057   -0.1150 C.ar      1 <0>         0.0811
     15 C12        -1.7735   -1.9797   -0.0628 C.ar      1 <0>        -0.0709
     16 C13        -1.0595   -3.1666    0.1256 C.ar      1 <0>        -0.0796
     17 C14        -1.7288   -4.3508    0.2553 C.ar      1 <0>        -0.1172
     18 C15        -3.1147   -4.3880    0.2018 C.ar      1 <0>        -0.1540
     19 C16        -3.8440   -3.2251    0.0236 C.ar      1 <0>         0.1381
     20 N2         -5.2404   -3.2727   -0.0313 N.pl3     1 <0>        -1.0563
     21 S1         -6.0696   -4.3553    0.9083 S.o2      1 <0>         2.6093
     22 O1         -7.4404   -4.0659    0.6711 O.2       1 <0>        -0.9524
     23 O2         -5.5270   -5.6231    0.5654 O.2       1 <0>        -0.9446
     24 C17        -5.6267   -3.9268    2.6144 C.3       1 <0>        -0.6676
     25 C18         0.7685   -0.5855   -1.4574 C.3       1 <0>        -0.1415
     26 C19         1.1286    0.3932   -2.5769 C.3       1 <0>        -0.1790
     27 C20         2.2208   -0.1444   -1.6502 C.3       1 <0>        -0.1800
     28 H2          0.9816    1.8944   -0.3459 H         1 <0>         0.0650
     29 H3         -0.5480    1.7924   -1.2504 H         1 <0>         0.0673
     30 H4         -0.5699    1.8945    0.5265 H         1 <0>         0.0615
     31 H5          2.1223   -1.6999    0.0049 H         1 <0>         0.1397
     32 H6          3.2857   -2.3656    2.0700 H         1 <0>         0.1338
     33 H7          0.6338    0.0830    4.3493 H         1 <0>         0.1321
     34 H8         -0.5208    0.7543    2.2810 H         1 <0>         0.1280
     35 H9         -2.5730    1.1957   -0.5290 H         1 <0>         0.1716
     36 H10         0.0194   -3.1477    0.1682 H         1 <0>         0.1242
     37 H11        -1.1740   -5.2659    0.4003 H         1 <0>         0.1304
     38 H12        -3.6293   -5.3319    0.3060 H         1 <0>         0.1633
     39 H13        -5.7234   -2.6716   -0.6198 H         1 <0>         0.4218
     40 H14        -5.9281   -2.8999    2.8210 H         1 <0>         0.1293
     41 H15        -6.1372   -4.6007    3.3024 H         1 <0>         0.1352
     42 H16        -4.5488   -4.0224    2.7449 H         1 <0>         0.1326
     43 H17         0.5100   -1.6050   -1.7435 H         1 <0>         0.1083
     44 H18         1.1068    0.0178   -3.6000 H         1 <0>         0.0920
     45 H19         0.8292    1.4338   -2.4513 H         1 <0>         0.1006
     46 H20         2.6400    0.5425   -0.9149 H         1 <0>         0.0964
     47 H21         2.9177   -0.8735   -2.0635 H         1 <0>         0.0952
@<TRIPOS>BOND
     1    1    2 1
     2    1   28 1
     3    1   29 1
     4    1   30 1
     5    2    3 1
     6    2   10 1
     7    2   25 1
     8    3    8 ar
     9    3    4 ar
    10    4    5 ar
    11    4   31 1
    12    5    6 ar
    13    5   32 1
    14    6    7 ar
    15    6    9 1
    16    7    8 ar
    17    7   33 1
    18    8   34 1
    19   10   15 1
    20   10   11 2
    21   11   12 1
    22   11   35 1
    23   12   13 1
    24   12   14 1
    25   14   19 ar
    26   14   15 ar
    27   15   16 ar
    28   16   17 ar
    29   16   36 1
    30   17   18 ar
    31   17   37 1
    32   18   19 ar
    33   18   38 1
    34   19   20 1
    35   20   21 1
    36   20   39 1
    37   21   22 2
    38   21   23 2
    39   21   24 1
    40   24   40 1
    41   24   41 1
    42   24   42 1
    43   25   27 1
    44   25   26 1
    45   25   43 1
    46   26   27 1
    47   26   44 1
    48   26   45 1
    49   27   46 1
    50   27   47 1
@<TRIPOS>MOLECULE
CHEMBL520169
   47    51     0     0     0
SMALL
USER_CHARGES

@<TRIPOS>ATOM
      1 C1         -1.1348   -1.2645   -0.5340 C.3       1 <0>         0.0555
      2 N1         -0.2529   -2.3693   -0.1498 N.pl3     1 <0>        -0.4152
      3 C2          0.0616   -3.4569   -0.9333 C.2       1 <0>         0.0559
      4 C3          0.9175   -4.2675   -0.2144 C.2       1 <0>        -0.1059
      5 C4          1.1255   -3.6624    1.0244 C.2       1 <0>        -0.1753
      6 C5          0.4004   -2.4906    1.0442 C.2       1 <0>         0.0967
      7 C6          0.3377   -1.5314    2.1657 C.ar      1 <0>        -0.0460
      8 C7         -0.0432   -0.2057    1.9424 C.ar      1 <0>        -0.0779
      9 C8         -0.0946    0.6683    2.9962 C.ar      1 <0>        -0.1574
     10 C9          0.2301    0.2650    4.3043 C.ar      1 <0>         0.2029
     11 C10         0.6031   -1.0471    4.5247 C.ar      1 <0>        -0.1334
     12 C11         0.6514   -1.9376    3.4583 C.ar      1 <0>        -0.0451
     13 C12         0.9639   -1.6109    5.8643 C.3       1 <0>         0.3576
     14 O1          1.6283   -0.7300    6.7203 O.3       1 <0>        -0.3389
     15 C13         0.8706    0.2321    7.4177 C.3       1 <0>         0.0417
     16 C14         0.4491    1.3470    6.5238 C.2       1 <0>         0.5013
     17 O2          0.3994    2.4542    7.0164 O.2       1 <0>        -0.5233
     18 N2          0.1282    1.2486    5.2612 N.am      1 <0>        -0.6451
     19 C15        -0.3017   -2.0677    6.5430 C.2       1 <0>        -0.2174
     20 C16        -1.5280   -2.2828    6.0069 C.2       1 <0>        -0.1133
     21 C17        -2.5545   -2.7061    6.8301 C.2       1 <0>        -0.1632
     22 C18        -2.3046   -2.8936    8.1491 C.2       1 <0>        -0.1584
     23 S1         -0.5730   -2.4736    8.2602 S.3       1 <0>         0.0744
     24 C19         1.8419   -2.8169    5.6503 C.2       1 <0>        -0.1602
     25 C20         3.1911   -2.8813    5.5372 C.2       1 <0>        -0.1131
     26 C21         3.7895   -4.1120    5.3429 C.2       1 <0>        -0.1595
     27 C22         3.0095   -5.2182    5.2711 C.2       1 <0>        -0.1640
     28 S2          1.3754   -4.5325    5.4878 S.3       1 <0>         0.0697
     29 C23        -0.4157   -3.7041   -2.2606 C.1       1 <0>         0.2768
     30 N3         -0.7943   -3.9003   -3.3136 N.1       1 <0>        -0.4037
     31 H1         -0.5359   -0.4371   -0.9147 H         1 <0>         0.0860
     32 H2         -1.8230   -1.6016   -1.3092 H         1 <0>         0.0886
     33 H3         -1.7016   -0.9326    0.3359 H         1 <0>         0.0972
     34 H4          1.3468   -5.2000   -0.5500 H         1 <0>         0.1544
     35 H5          1.7462   -4.0414    1.8227 H         1 <0>         0.1509
     36 H6         -0.2948    0.1276    0.9464 H         1 <0>         0.1375
     37 H7         -0.3913    1.6915    2.8185 H         1 <0>         0.1369
     38 H8          0.9418   -2.9625    3.6361 H         1 <0>         0.1445
     39 H9         -0.0163   -0.2460    7.8335 H         1 <0>         0.1023
     40 H10         1.4712    0.6363    8.2326 H         1 <0>         0.1497
     41 H11        -0.2770    2.0600    4.9173 H         1 <0>         0.4024
     42 H12        -1.7004   -2.1254    4.9525 H         1 <0>         0.1357
     43 H13        -3.5410   -2.8844    6.4284 H         1 <0>         0.1390
     44 H14        -2.9774   -3.2172    8.9295 H         1 <0>         0.1908
     45 H15         3.7895   -1.9843    5.5977 H         1 <0>         0.1394
     46 H16         4.8625   -4.1910    5.2492 H         1 <0>         0.1387
     47 H17         3.3011   -6.2478    5.1248 H         1 <0>         0.1899
@<TRIPOS>BOND
     1    1    2 1
     2    1   31 1
     3    1   32 1
     4    1   33 1
     5    2    6 1
     6    2    3 1
     7    3    4 2
     8    3   29 1
     9    4    5 1
    10    4   34 1
    11    5    6 2
    12    5   35 1
    13    6    7 1
    14    7   12 ar
    15    7    8 ar
    16    8    9 ar
    17    8   36 1
    18    9   10 ar
    19    9   37 1
    20   10   18 1
    21   10   11 ar
    22   11   12 ar
    23   11   13 1
    24   12   38 1
    25   13   14 1
    26   13   19 1
    27   13   24 1
    28   14   15 1
    29   15   16 1
    30   15   39 1
    31   15   40 1
    32   16   17 2
    33   16   18 am
    34   18   41 1
    35   19   23 1
    36   19   20 2
    37   20   21 1
    38   20   42 1
    39   21   22 2
    40   21   43 1
    41   22   23 1
    42   22   44 1
    43   24   28 1
    44   24   25 2
    45   25   26 1
    46   25   45 1
    47   26   27 2
    48   26   46 1
    49   27   28 1
    50   27   47 1
    51   29   30 3
@<TRIPOS>MOLECULE
CHEMBL117954
   31    33     0     0     0
SMALL
USER_CHARGES

@<TRIPOS>ATOM
      1 C1         -0.0187    1.5258    0.0104 C.3       1 <0>        -0.1293
      2 C2          0.0021   -0.0041    0.0020 C.3       1 <0>        -0.0542
      3 C3          0.7880   -0.5167   -1.1832 C.ar      1 <0>        -0.1284
      4 C4          0.6198   -0.3854   -2.5401 C.ar      1 <0>        -0.0415
      5 C5          1.5301   -0.9865   -3.4142 C.ar      1 <0>        -0.0393
      6 C6          2.6031   -1.7157   -2.8961 C.ar      1 <0>        -0.0509
      7 C7          2.7621   -1.8414   -1.5352 C.ar      1 <0>        -0.1343
      8 C8          1.8543   -1.2414   -0.6612 C.ar      1 <0>         0.1608
      9 N1          1.8079   -1.2293    0.7323 N.am      1 <0>        -0.6597
     10 C9          0.7606   -0.5309    1.2015 C.2       1 <0>         0.5357
     11 O1          0.4763   -0.3552    2.3674 O.2       1 <0>        -0.4881
     12 C10         1.3584   -0.8521   -4.8750 C.2       1 <0>        -0.0763
     13 C11         2.1396   -1.3713   -5.8941 C.2       1 <0>        -0.1642
     14 C12         1.7860   -1.1150   -7.1899 C.2       1 <0>        -0.0693
     15 C13         0.6579   -0.3445   -7.4321 C.2       1 <0>        -0.1353
     16 S1          0.0865    0.0147   -5.7793 S.3       1 <0>         0.1593
     17 C14         0.0936    0.0554   -8.6860 C.1       1 <0>         0.2907
     18 N2         -0.3541    0.3726   -9.6807 N.1       1 <0>        -0.3928
     19 C15        -1.4239   -0.5582   -0.0163 C.3       1 <0>        -0.1290
     20 H1          1.0039    1.9031    0.0027 H         1 <0>         0.0625
     21 H2         -0.5459    1.8868   -0.8726 H         1 <0>         0.0754
     22 H3         -0.5289    1.8773    0.9072 H         1 <0>         0.0741
     23 H4         -0.2133    0.1802   -2.9305 H         1 <0>         0.1324
     24 H5          3.3100   -2.1826   -3.5659 H         1 <0>         0.1404
     25 H6          3.5937   -2.4069   -1.1414 H         1 <0>         0.1363
     26 H7          2.4576   -1.6746    1.2984 H         1 <0>         0.4162
     27 H8          3.0120   -1.9671   -5.6694 H         1 <0>         0.1486
     28 H9          2.3733   -1.5043   -8.0084 H         1 <0>         0.1485
     29 H10        -1.9352   -0.2159   -0.9161 H         1 <0>         0.0753
     30 H11        -1.3905   -1.6476   -0.0095 H         1 <0>         0.0623
     31 H12        -1.9620   -0.2057    0.8636 H         1 <0>         0.0742
@<TRIPOS>BOND
     1    1    2 1
     2    1   20 1
     3    1   21 1
     4    1   22 1
     5    2   10 1
     6    2    3 1
     7    2   19 1
     8    3    8 ar
     9    3    4 ar
    10    4    5 ar
    11    4   23 1
    12    5    6 ar
    13    5   12 1
    14    6    7 ar
    15    6   24 1
    16    7    8 ar
    17    7   25 1
    18    8    9 1
    19    9   10 am
    20    9   26 1
    21   10   11 2
    22   12   16 1
    23   12   13 2
    24   13   14 1
    25   13   27 1
    26   14   15 2
    27   14   28 1
    28   15   16 1
    29   15   17 1
    30   17   18 3
    31   19   29 1
    32   19   30 1
    33   19   31 1
@<TRIPOS>MOLECULE
CHEMBL507253
   88    93     0     0     0
SMALL
USER_CHARGES

@<TRIPOS>ATOM
      1 C1         -1.5911    2.2185    1.0260 C.3       1 <0>        -0.0459
      2 C2         -1.1366    0.8203    1.0997 C.1       1 <0>        -0.1646
      3 C3         -0.7742   -0.2948    1.1585 C.1       1 <0>        -0.2113
      4 C4         -0.3198   -1.6930    1.2322 C.3       1 <0>         0.2575
      5 C5          0.9201   -1.9014    0.3292 C.3       1 <0>        -0.1447
      6 C6          0.4929   -2.9015   -0.7780 C.3       1 <0>        -0.1134
      7 C7         -1.0311   -2.7307   -0.8306 C.3       1 <0>        -0.0797
      8 H1         -1.2952   -1.8113   -1.3532 H         1 <0>         0.0793
      9 C8         -1.3918   -2.6271    0.6748 C.3       1 <0>        -0.0360
     10 C9         -2.8184   -2.1130    0.7593 C.3       1 <0>        -0.0947
     11 C10        -3.7333   -3.2187    0.2111 C.3       1 <0>        -0.0181
     12 H2         -4.7482   -2.8315    0.1201 H         1 <0>         0.0983
     13 C11        -3.2567   -3.6915   -1.1479 C.2       1 <0>        -0.0427
     14 C12        -4.1792   -3.8905   -2.0873 C.2       1 <0>        -0.1335
     15 C13        -5.6413   -3.6381   -1.7975 C.3       1 <0>        -0.0802
     16 C14        -6.2599   -2.9181   -2.9997 C.3       1 <0>        -0.1660
     17 C15        -5.9289   -3.6563   -4.2685 C.2       1 <0>         0.3875
     18 O1         -6.7517   -3.7057   -5.1606 O.2       1 <0>        -0.4718
     19 C16        -4.6857   -4.2897   -4.4418 C.2       1 <0>        -0.2496
     20 C17        -3.8130   -4.3810   -3.4157 C.2       1 <0>         0.0281
     21 C18        -2.4436   -4.9914   -3.5880 C.3       1 <0>        -0.0956
     22 C19        -1.4408   -4.0922   -2.8665 C.3       1 <0>        -0.1114
     23 C20        -1.7860   -3.9148   -1.4199 C.3       1 <0>        -0.0451
     24 H3         -1.4760   -4.8234   -0.9036 H         1 <0>         0.0938
     25 C21        -3.7314   -4.3828    1.1681 C.ar      1 <0>        -0.1138
     26 C22        -3.8025   -4.1561    2.5304 C.ar      1 <0>        -0.0650
     27 C23        -3.8010   -5.2206    3.4102 C.ar      1 <0>        -0.1930
     28 C24        -3.7280   -6.5203    2.9253 C.ar      1 <0>         0.2152
     29 C25        -3.6568   -6.7445    1.5562 C.ar      1 <0>        -0.1926
     30 C26        -3.6644   -5.6756    0.6818 C.ar      1 <0>        -0.0750
     31 N1         -3.7259   -7.5992    3.8123 N.pl3     1 <0>        -0.6324
     32 C27        -3.8006   -7.3609    5.2558 C.3       1 <0>         0.0930
     33 C28        -3.6488   -8.9692    3.2991 C.3       1 <0>         0.1237
     34 C29        -2.1821   -9.3896    3.1856 C.3       1 <0>        -0.1376
     35 C30        -2.1016  -10.8204    2.6497 C.3       1 <0>        -0.1162
     36 C31        -0.6349  -11.2408    2.5362 C.3       1 <0>        -0.1138
     37 C32        -0.5544  -12.6716    2.0002 C.3       1 <0>        -0.1313
     38 C33         0.9123  -13.0920    1.8868 C.3       1 <0>         0.2306
     39 O2          1.5687  -12.2907    0.8900 O.3       1 <0>        -0.3760
     40 C34         2.5066  -13.1897    0.2511 C.3       1 <0>         0.0152
     41 C35         1.7162  -14.5220    0.2522 C.3       1 <0>         0.0204
     42 O3          0.9898  -14.4694    1.4967 O.3       1 <0>        -0.3863
     43 C36        -1.2795   -4.0029    1.3348 C.3       1 <0>        -0.1473
     44 O4         -0.0137   -2.0421    2.5836 O.3       1 <0>        -0.5384
     45 H4         -0.8174    2.8735    1.4265 H         1 <0>         0.0812
     46 H5         -1.7883    2.4821   -0.0131 H         1 <0>         0.0818
     47 H6         -2.5040    2.3350    1.6100 H         1 <0>         0.0820
     48 H7          1.2206   -0.9540   -0.1182 H         1 <0>         0.0716
     49 H8          1.7417   -2.3175    0.9123 H         1 <0>         0.0803
     50 H9          0.9438   -2.6339   -1.7336 H         1 <0>         0.0707
     51 H10         0.7568   -3.9215   -0.4985 H         1 <0>         0.0753
     52 H11        -3.0751   -1.8993    1.7969 H         1 <0>         0.0743
     53 H12        -2.9241   -1.2109    0.1566 H         1 <0>         0.0675
     54 H13        -6.1519   -4.5876   -1.6371 H         1 <0>         0.0811
     55 H14        -5.7358   -3.0140   -0.9088 H         1 <0>         0.0928
     56 H15        -7.3423   -2.8754   -2.8780 H         1 <0>         0.0940
     57 H16        -5.8638   -1.9043   -3.0572 H         1 <0>         0.0983
     58 H17        -4.4266   -4.7067   -5.4038 H         1 <0>         0.1342
     59 H18        -2.4263   -5.9896   -3.1506 H         1 <0>         0.0891
     60 H19        -2.1945   -5.0470   -4.6477 H         1 <0>         0.0852
     61 H20        -0.4467   -4.5317   -2.9487 H         1 <0>         0.0787
     62 H21        -1.4349   -3.1124   -3.3440 H         1 <0>         0.0668
     63 H22        -3.8589   -3.1453    2.9068 H         1 <0>         0.1194
     64 H23        -3.8562   -5.0428    4.4740 H         1 <0>         0.1194
     65 H24        -3.5995   -7.7537    1.1759 H         1 <0>         0.1189
     66 H25        -3.6134   -5.8493   -0.3830 H         1 <0>         0.1191
     67 H26        -4.8450   -7.3421    5.5674 H         1 <0>         0.0470
     68 H27        -3.2784   -8.1591    5.7834 H         1 <0>         0.0646
     69 H28        -3.3341   -6.4042    5.4908 H         1 <0>         0.0681
     70 H29        -4.1680   -9.6425    3.9812 H         1 <0>         0.0720
     71 H30        -4.1172   -9.0158    2.3159 H         1 <0>         0.0750
     72 H31        -1.6629   -8.7164    2.5035 H         1 <0>         0.0670
     73 H32        -1.7137   -9.3430    4.1688 H         1 <0>         0.0629
     74 H33        -2.6209  -11.4937    3.3318 H         1 <0>         0.0631
     75 H34        -2.5700  -10.8670    1.6665 H         1 <0>         0.0636
     76 H35        -0.1157  -10.5676    1.8541 H         1 <0>         0.0704
     77 H36        -0.1665  -11.1942    3.5194 H         1 <0>         0.0624
     78 H37        -1.0737  -13.3448    2.6823 H         1 <0>         0.0825
     79 H38        -1.0228  -12.7182    1.0171 H         1 <0>         0.0735
     80 H39         1.4078  -12.9552    2.8480 H         1 <0>         0.0837
     81 H40         2.7253  -12.8666   -0.7667 H         1 <0>         0.1100
     82 H41         3.4221  -13.2787    0.8359 H         1 <0>         0.0770
     83 H42         1.0294  -14.5631   -0.5933 H         1 <0>         0.0768
     84 H43         2.3965  -15.3736    0.2389 H         1 <0>         0.1014
     85 H44        -1.7051   -3.9607    2.3374 H         1 <0>         0.0716
     86 H45        -1.8231   -4.7368    0.7398 H         1 <0>         0.0834
     87 H46        -0.2302   -4.2913    1.3974 H         1 <0>         0.0458
     88 H47         0.6749   -1.4946    2.9850 H         1 <0>         0.3766
@<TRIPOS>BOND
     1    1    2 1
     2    1   45 1
     3    1   46 1
     4    1   47 1
     5    2    3 3
     6    3    4 1
     7    4    9 1
     8    4    5 1
     9    4   44 1
    10    5    6 1
    11    5   48 1
    12    5   49 1
    13    6    7 1
    14    6   50 1
    15    6   51 1
    16    7    8 1
    17    7   23 1
    18    7    9 1
    19    9   10 1
    20    9   43 1
    21   10   11 1
    22   10   52 1
    23   10   53 1
    24   11   12 1
    25   11   13 1
    26   11   25 1
    27   13   23 1
    28   13   14 2
    29   14   20 1
    30   14   15 1
    31   15   16 1
    32   15   54 1
    33   15   55 1
    34   16   17 1
    35   16   56 1
    36   16   57 1
    37   17   18 2
    38   17   19 1
    39   19   20 2
    40   19   58 1
    41   20   21 1
    42   21   22 1
    43   21   59 1
    44   21   60 1
    45   22   23 1
    46   22   61 1
    47   22   62 1
    48   23   24 1
    49   25   30 ar
    50   25   26 ar
    51   26   27 ar
    52   26   63 1
    53   27   28 ar
    54   27   64 1
    55   28   29 ar
    56   28   31 1
    57   29   30 ar
    58   29   65 1
    59   30   66 1
    60   31   32 1
    61   31   33 1
    62   32   67 1
    63   32   68 1
    64   32   69 1
    65   33   34 1
    66   33   70 1
    67   33   71 1
    68   34   35 1
    69   34   72 1
    70   34   73 1
    71   35   36 1
    72   35   74 1
    73   35   75 1
    74   36   37 1
    75   36   76 1
    76   36   77 1
    77   37   38 1
    78   37   78 1
    79   37   79 1
    80   38   42 1
    81   38   39 1
    82   38   80 1
    83   39   40 1
    84   40   41 1
    85   40   81 1
    86   40   82 1
    87   41   42 1
    88   41   83 1
    89   41   84 1
    90   43   85 1
    91   43   86 1
    92   43   87 1
    93   44   88 1
@<TRIPOS>MOLECULE
CHEMBL409905
   74    80     0     0     0
SMALL
USER_CHARGES

@<TRIPOS>ATOM
      1 C1          1.7869    1.4931    1.1259 C.3       1 <0>        -0.1485
      2 C2          1.4285    0.0382    0.8165 C.3       1 <0>        -0.0741
      3 H1          2.1341   -0.3755    0.0960 H         1 <0>         0.0740
      4 C3         -0.0126   -0.0465    0.2575 C.3       1 <0>        -0.1097
      5 C4         -0.8004   -0.8589    1.2831 C.3       1 <0>        -0.0784
      6 H2         -1.2156   -0.1957    2.0419 H         1 <0>         0.0775
      7 C5         -1.8982   -1.7438    0.7124 C.3       1 <0>        -0.0455
      8 H3         -1.4679   -2.3912   -0.0517 H         1 <0>         0.0961
      9 C6         -2.9731   -0.8785    0.0767 C.3       1 <0>        -0.1115
     10 C7         -4.2536   -1.6724   -0.1791 C.3       1 <0>        -0.0964
     11 C8         -4.7176   -2.2370    1.1401 C.2       1 <0>         0.0243
     12 C9         -6.0207   -2.2182    1.4980 C.2       1 <0>        -0.2463
     13 C10        -6.4203   -2.6609    2.7707 C.2       1 <0>         0.3865
     14 O1         -7.6035   -2.7823    3.0170 O.2       1 <0>        -0.4687
     15 C11        -5.4053   -2.9876    3.8332 C.3       1 <0>        -0.1660
     16 C12        -4.1842   -3.6584    3.1979 C.3       1 <0>        -0.0819
     17 C13        -3.7161   -2.8191    2.0327 C.2       1 <0>        -0.1240
     18 C14        -2.4257   -2.5986    1.8366 C.2       1 <0>        -0.0495
     19 C15        -1.4647   -3.2946    2.7798 C.3       1 <0>        -0.0307
     20 H4         -2.0043   -3.6100    3.6728 H         1 <0>         0.1068
     21 C16        -0.3198   -2.3546    3.1871 C.3       1 <0>        -0.1012
     22 C17         0.2763   -1.7789    1.9172 C.3       1 <0>        -0.0491
     23 C18         1.4440   -0.8031    2.1206 C.3       1 <0>        -0.1201
     24 H5          1.2692   -0.1694    2.9900 H         1 <0>         0.0990
     25 C19         2.7459   -1.5498    2.2572 C.2       1 <0>         0.3912
     26 O2          2.8959   -2.6093    1.6975 O.2       1 <0>        -0.4388
     27 C20         3.8606   -0.9742    3.0922 C.3       1 <0>        -0.2244
     28 C21         5.2778   -1.0380    2.5193 C.3       1 <0>        -0.1492
     29 C22         4.8801   -1.9519    3.6801 C.3       1 <0>        -0.1517
     30 C23         0.6544   -2.9093    0.9579 C.3       1 <0>        -0.1514
     31 C24        -0.8890   -4.5072    2.0948 C.ar      1 <0>        -0.0394
     32 C25         0.2182   -5.1403    2.6301 C.ar      1 <0>        -0.1136
     33 C26         0.7495   -6.2512    2.0070 C.ar      1 <0>        -0.0922
     34 C27         0.1686   -6.7348    0.8363 C.ar      1 <0>        -0.0614
     35 C28        -0.9467   -6.0930    0.3014 C.ar      1 <0>        -0.0965
     36 C29        -1.4732   -4.9863    0.9361 C.ar      1 <0>        -0.1230
     37 C30         0.7356   -7.9283    0.1616 C.ar      1 <0>         0.0057
     38 C31         1.8505   -8.5878    0.6866 C.ar      1 <0>        -0.1686
     39 C32         2.3458   -9.6940    0.0273 C.ar      1 <0>         0.1035
     40 N1          1.7819  -10.1293   -1.0831 N.ar      1 <0>        -0.4890
     41 C33         0.7288   -9.5359   -1.6115 C.ar      1 <0>         0.1033
     42 C34         0.1660   -8.4272   -1.0132 C.ar      1 <0>        -0.1694
     43 H6          2.7880    1.5373    1.5548 H         1 <0>         0.0568
     44 H7          1.7595    2.0775    0.2063 H         1 <0>         0.0593
     45 H8          1.0686    1.9009    1.8372 H         1 <0>         0.0589
     46 H9         -0.4385    0.9520    0.1595 H         1 <0>         0.0713
     47 H10        -0.0137   -0.5541   -0.7071 H         1 <0>         0.0685
     48 H11        -3.1981   -0.0444    0.7414 H         1 <0>         0.0689
     49 H12        -2.6014   -0.4873   -0.8704 H         1 <0>         0.0774
     50 H13        -5.0200   -1.0146   -0.5891 H         1 <0>         0.0859
     51 H14        -4.0511   -2.4845   -0.8774 H         1 <0>         0.0883
     52 H15        -6.7621   -1.8592    0.7995 H         1 <0>         0.1351
     53 H16        -5.0953   -2.0696    4.3324 H         1 <0>         0.0991
     54 H17        -5.8504   -3.6631    4.5637 H         1 <0>         0.0951
     55 H18        -3.3855   -3.7365    3.9356 H         1 <0>         0.0932
     56 H19        -4.4564   -4.6532    2.8453 H         1 <0>         0.0821
     57 H20        -0.7064   -1.5453    3.8066 H         1 <0>         0.0725
     58 H21         0.4408   -2.9114    3.7345 H         1 <0>         0.0721
     59 H22         3.5978   -0.1013    3.6898 H         1 <0>         0.1215
     60 H23         5.4040   -1.4963    1.5384 H         1 <0>         0.1001
     61 H24         5.9477   -0.2069    2.7397 H         1 <0>         0.1039
     62 H25         5.2883   -1.7220    4.6643 H         1 <0>         0.1030
     63 H26         4.7446   -3.0114    3.4629 H         1 <0>         0.1032
     64 H27         1.2852   -2.5143    0.1616 H         1 <0>         0.0479
     65 H28         1.1976   -3.6815    1.5025 H         1 <0>         0.0833
     66 H29        -0.2503   -3.3374    0.5262 H         1 <0>         0.0682
     67 H30         0.6678   -4.7645    3.5373 H         1 <0>         0.1247
     68 H31         1.6142   -6.7446    2.4256 H         1 <0>         0.1246
     69 H32        -1.4007   -6.4634   -0.6058 H         1 <0>         0.1242
     70 H33        -2.3402   -4.4907    0.5248 H         1 <0>         0.1263
     71 H34         2.3176   -8.2365    1.5948 H         1 <0>         0.1362
     72 H35         3.2069  -10.2103    0.4253 H         1 <0>         0.1572
     73 H36         0.2988   -9.9257   -2.5224 H         1 <0>         0.1571
     74 H37        -0.6989   -7.9492   -1.4488 H         1 <0>         0.1360
@<TRIPOS>BOND
     1    1    2 1
     2    1   43 1
     3    1   44 1
     4    1   45 1
     5    2    3 1
     6    2   23 1
     7    2    4 1
     8    4    5 1
     9    4   46 1
    10    4   47 1
    11    5    6 1
    12    5   22 1
    13    5    7 1
    14    7    8 1
    15    7   18 1
    16    7    9 1
    17    9   10 1
    18    9   48 1
    19    9   49 1
    20   10   11 1
    21   10   50 1
    22   10   51 1
    23   11   17 1
    24   11   12 2
    25   12   13 1
    26   12   52 1
    27   13   14 2
    28   13   15 1
    29   15   16 1
    30   15   53 1
    31   15   54 1
    32   16   17 1
    33   16   55 1
    34   16   56 1
    35   17   18 2
    36   18   19 1
    37   19   20 1
    38   19   21 1
    39   19   31 1
    40   21   22 1
    41   21   57 1
    42   21   58 1
    43   22   23 1
    44   22   30 1
    45   23   24 1
    46   23   25 1
    47   25   26 2
    48   25   27 1
    49   27   29 1
    50   27   28 1
    51   27   59 1
    52   28   29 1
    53   28   60 1
    54   28   61 1
    55   29   62 1
    56   29   63 1
    57   30   64 1
    58   30   65 1
    59   30   66 1
    60   31   36 ar
    61   31   32 ar
    62   32   33 ar
    63   32   67 1
    64   33   34 ar
    65   33   68 1
    66   34   35 ar
    67   34   37 1
    68   35   36 ar
    69   35   69 1
    70   36   70 1
    71   37   42 ar
    72   37   38 ar
    73   38   39 ar
    74   38   71 1
    75   39   40 ar
    76   39   72 1
    77   40   41 ar
    78   41   42 ar
    79   41   73 1
    80   42   74 1
@<TRIPOS>MOLECULE
CHEMBL1209233
   45    48     0     0     0
SMALL
USER_CHARGES

@<TRIPOS>ATOM
      1 C1          1.3642   -2.9245    1.4263 C.3       1 <0>         0.0563
      2 N1          0.6157   -1.9489    0.6301 N.pl3     1 <0>        -0.4144
      3 C2          0.4641   -1.9749   -0.7371 C.2       1 <0>         0.0550
      4 C3         -0.3059   -0.8886   -1.1019 C.2       1 <0>        -0.1082
      5 C4         -0.6263   -0.1927    0.0634 C.2       1 <0>        -0.1767
      6 C5         -0.0539   -0.8639    1.1214 C.2       1 <0>         0.0918
      7 C6         -0.1454   -0.4750    2.5441 C.ar      1 <0>        -0.0134
      8 C7         -0.4571    0.8399    2.8958 C.ar      1 <0>        -0.0987
      9 C8         -0.5359    1.1878    4.2250 C.ar      1 <0>        -0.1031
     10 C9         -0.3101    0.2446    5.2218 C.ar      1 <0>        -0.1010
     11 C10        -0.0070   -1.0562    4.8813 C.ar      1 <0>        -0.0481
     12 C11         0.0730   -1.4185    3.5454 C.ar      1 <0>        -0.1307
     13 C12         0.2327   -2.1290    5.9116 C.3       1 <0>        -0.0866
     14 C13         0.5286   -1.5083    7.2752 C.3       1 <0>        -0.1188
     15 C14        -0.5719   -0.4887    7.5916 C.3       1 <0>        -0.1078
     16 C15        -0.4068    0.7049    6.6534 C.3       1 <0>         0.2208
     17 C16        -1.5939    1.6213    6.8015 C.ar      1 <0>        -0.1059
     18 C17        -2.8317    1.1013    7.1307 C.ar      1 <0>        -0.1092
     19 C18        -3.9206    1.9419    7.2665 C.ar      1 <0>        -0.1151
     20 C19        -3.7717    3.3026    7.0737 C.ar      1 <0>        -0.1183
     21 C20        -2.5337    3.8228    6.7455 C.ar      1 <0>        -0.1145
     22 C21        -1.4439    2.9826    6.6138 C.ar      1 <0>        -0.1162
     23 O1          0.7829    1.4163    7.0010 O.3       1 <0>        -0.5418
     24 C22         1.0099   -2.9561   -1.6259 C.1       1 <0>         0.2770
     25 N2          1.4429   -3.7345   -2.3310 N.1       1 <0>        -0.4037
     26 H1          0.6805   -3.6822    1.8092 H         1 <0>         0.0853
     27 H2          2.1203   -3.3999    0.8015 H         1 <0>         0.0879
     28 H3          1.8487   -2.4174    2.2607 H         1 <0>         0.0981
     29 H4         -0.6049   -0.6256   -2.1058 H         1 <0>         0.1545
     30 H5         -1.2190    0.7080    0.1255 H         1 <0>         0.1528
     31 H6         -0.6350    1.5796    2.1293 H         1 <0>         0.1326
     32 H7         -0.7755    2.2051    4.4971 H         1 <0>         0.1285
     33 H8          0.3105   -2.4379    3.2793 H         1 <0>         0.1272
     34 H9         -0.6539   -2.7584    5.9880 H         1 <0>         0.0801
     35 H10         1.0810   -2.7402    5.6033 H         1 <0>         0.0776
     36 H11         0.5385   -2.2865    8.0384 H         1 <0>         0.0727
     37 H12         1.4963   -1.0074    7.2484 H         1 <0>         0.0769
     38 H13        -1.5500   -0.9445    7.4371 H         1 <0>         0.0832
     39 H14        -0.4797   -0.1581    8.6261 H         1 <0>         0.0806
     40 H15        -2.9480    0.0382    7.2813 H         1 <0>         0.1256
     41 H16        -4.8878    1.5355    7.5230 H         1 <0>         0.1241
     42 H17        -4.6226    3.9593    7.1792 H         1 <0>         0.1233
     43 H18        -2.4174    4.8858    6.5945 H         1 <0>         0.1245
     44 H19        -0.4759    3.3894    6.3610 H         1 <0>         0.1207
     45 H20         0.9457    2.1995    6.4577 H         1 <0>         0.3750
@<TRIPOS>BOND
     1    1    2 1
     2    1   26 1
     3    1   27 1
     4    1   28 1
     5    2    6 1
     6    2    3 1
     7    3    4 2
     8    3   24 1
     9    4    5 1
    10    4   29 1
    11    5    6 2
    12    5   30 1
    13    6    7 1
    14    7   12 ar
    15    7    8 ar
    16    8    9 ar
    17    8   31 1
    18    9   10 ar
    19    9   32 1
    20   10   16 1
    21   10   11 ar
    22   11   12 ar
    23   11   13 1
    24   12   33 1
    25   13   14 1
    26   13   34 1
    27   13   35 1
    28   14   15 1
    29   14   36 1
    30   14   37 1
    31   15   16 1
    32   15   38 1
    33   15   39 1
    34   16   17 1
    35   16   23 1
    36   17   22 ar
    37   17   18 ar
    38   18   19 ar
    39   18   40 1
    40   19   20 ar
    41   19   41 1
    42   20   21 ar
    43   20   42 1
    44   21   22 ar
    45   21   43 1
    46   22   44 1
    47   23   45 1
    48   24   25 3
@<TRIPOS>MOLECULE
CHEMBL1209233__1
   45    48     0     0     0
SMALL
USER_CHARGES

@<TRIPOS>ATOM
      1 C1          1.3637   -2.9249    1.4264 C.3       1 <0>         0.0565
      2 N1          0.6154   -1.9490    0.6301 N.pl3     1 <0>        -0.4145
      3 C2          0.4639   -1.9750   -0.7371 C.2       1 <0>         0.0549
      4 C3         -0.3058   -0.8885   -1.1019 C.2       1 <0>        -0.1081
      5 C4         -0.6261   -0.1925    0.0634 C.2       1 <0>        -0.1766
      6 C5         -0.0539   -0.8639    1.1214 C.2       1 <0>         0.0919
      7 C6         -0.1454   -0.4750    2.5441 C.ar      1 <0>        -0.0135
      8 C7         -0.4571    0.8399    2.8958 C.ar      1 <0>        -0.0986
      9 C8         -0.5417    1.1865    4.2250 C.ar      1 <0>        -0.1032
     10 C9         -0.3179    0.2427    5.2218 C.ar      1 <0>        -0.1010
     11 C10        -0.0047   -1.0557    4.8813 C.ar      1 <0>        -0.0481
     12 C11         0.0730   -1.4185    3.5454 C.ar      1 <0>        -0.1306
     13 C12         0.2648   -2.1214    5.9115 C.3       1 <0>        -0.0868
     14 C13        -0.2760   -1.6992    7.2759 C.3       1 <0>        -0.1189
     15 C14         0.2497   -0.2938    7.5908 C.3       1 <0>        -0.1075
     16 C15        -0.4358    0.6980    6.6534 C.3       1 <0>         0.2208
     17 C16         0.2132    2.0502    6.7998 C.ar      1 <0>        -0.1058
     18 C17         1.5559    2.1418    7.1155 C.ar      1 <0>        -0.1095
     19 C18         2.1513    3.3822    7.2498 C.ar      1 <0>        -0.1153
     20 C19         1.4040    4.5308    7.0681 C.ar      1 <0>        -0.1185
     21 C20         0.0615    4.4392    6.7515 C.ar      1 <0>        -0.1143
     22 C21        -0.5328    3.1988    6.6130 C.ar      1 <0>        -0.1162
     23 O1         -1.8176    0.7991    7.0033 O.3       1 <0>        -0.5414
     24 C22         1.0095   -2.9563   -1.6259 C.1       1 <0>         0.2771
     25 N2          1.4424   -3.7348   -2.3309 N.1       1 <0>        -0.4037
     26 H1          0.6798   -3.6824    1.8092 H         1 <0>         0.0854
     27 H2          2.1198   -3.4004    0.8016 H         1 <0>         0.0878
     28 H3          1.8483   -2.4179    2.2608 H         1 <0>         0.0978
     29 H4         -0.6046   -0.6254   -2.1058 H         1 <0>         0.1545
     30 H5         -1.2186    0.7083    0.1255 H         1 <0>         0.1529
     31 H6         -0.6305    1.5806    2.1293 H         1 <0>         0.1326
     32 H7         -0.7842    2.2031    4.4971 H         1 <0>         0.1285
     33 H8          0.3088   -2.4383    3.2793 H         1 <0>         0.1272
     34 H9         -0.2189   -3.0486    5.6045 H         1 <0>         0.0782
     35 H10         1.3399   -2.2853    5.9862 H         1 <0>         0.0794
     36 H11        -1.3656   -1.6865    7.2510 H         1 <0>         0.0773
     37 H12         0.0661   -2.3985    8.0388 H         1 <0>         0.0727
     38 H13         0.0205   -0.0394    8.6256 H         1 <0>         0.0806
     39 H14         1.3280   -0.2616    7.4345 H         1 <0>         0.0828
     40 H15         2.1397    1.2444    7.2575 H         1 <0>         0.1253
     41 H16         3.2001    3.4538    7.4972 H         1 <0>         0.1239
     42 H17         1.8690    5.4999    7.1737 H         1 <0>         0.1233
     43 H18        -0.5224    5.3366    6.6098 H         1 <0>         0.1246
     44 H19        -1.5808    3.1272    6.3620 H         1 <0>         0.1210
     45 H20        -2.3160    1.4254    6.4607 H         1 <0>         0.3752
@<TRIPOS>BOND
     1    1    2 1
     2    1   26 1
     3    1   27 1
     4    1   28 1
     5    2    6 1
     6    2    3 1
     7    3    4 2
     8    3   24 1
     9    4    5 1
    10    4   29 1
    11    5    6 2
    12    5   30 1
    13    6    7 1
    14    7   12 ar
    15    7    8 ar
    16    8    9 ar
    17    8   31 1
    18    9   10 ar
    19    9   32 1
    20   10   16 1
    21   10   11 ar
    22   11   12 ar
    23   11   13 1
    24   12   33 1
    25   13   14 1
    26   13   34 1
    27   13   35 1
    28   14   15 1
    29   14   36 1
    30   14   37 1
    31   15   16 1
    32   15   38 1
    33   15   39 1
    34   16   17 1
    35   16   23 1
    36   17   22 ar
    37   17   18 ar
    38   18   19 ar
    39   18   40 1
    40   19   20 ar
    41   19   41 1
    42   20   21 ar
    43   20   42 1
    44   21   22 ar
    45   21   43 1
    46   22   44 1
    47   23   45 1
    48   24   25 3
@<TRIPOS>MOLECULE
CHEMBL345342
   43    45     0     0     0
SMALL
USER_CHARGES

@<TRIPOS>ATOM
      1 C1         -0.0184    1.5028    0.0103 C.3       1 <0>        -0.1183
      2 C2          0.0021   -0.0041    0.0020 C.2       1 <0>        -0.0581
      3 C3          0.0057   -0.6651   -1.1486 C.2       1 <0>        -0.1737
      4 C4          0.0106   -2.1701   -1.1813 C.3       1 <0>         0.2137
      5 N1          0.6744   -2.6966    0.0178 N.pl3     1 <0>        -0.6188
      6 C5          0.3698   -2.1215    1.2492 C.ar      1 <0>         0.2790
      7 C6          0.0243   -0.7537    1.2746 C.ar      1 <0>        -0.1282
      8 C7         -0.2891   -0.1401    2.4742 C.ar      1 <0>        -0.0094
      9 C8         -0.2511   -0.8870    3.6573 C.ar      1 <0>        -0.1587
     10 C9         -0.5769   -0.2707    4.9433 C.2       1 <0>        -0.0696
     11 C10        -0.5243   -1.0373    6.0623 C.2       1 <0>        -0.1567
     12 C11        -0.1620   -2.3965    5.9756 C.2       1 <0>         0.5376
     13 O1         -0.1213   -3.0664    6.9933 O.2       1 <0>        -0.5214
     14 N2          0.1392   -2.9733    4.7995 N.am      1 <0>        -0.5173
     15 C12         0.1044   -2.2517    3.6248 C.ar      1 <0>         0.2396
     16 C13         0.4053   -2.8584    2.4144 C.ar      1 <0>        -0.2312
     17 C14         0.5103   -4.3901    4.7650 C.3       1 <0>         0.0586
     18 C15        -0.9631    1.1837    5.0240 C.3       1 <0>         0.5080
     19 F1         -1.2235    1.5238    6.3558 F         1 <0>        -0.1678
     20 F2          0.0851    1.9722    4.5377 F         1 <0>        -0.1672
     21 F3         -2.1096    1.4052    4.2534 F         1 <0>        -0.1672
     22 C16         1.6333   -3.8000   -0.0786 C.3       1 <0>         0.0907
     23 C17         0.7587   -2.6485   -2.4272 C.3       1 <0>        -0.1532
     24 C18        -1.4306   -2.6815   -1.2297 C.3       1 <0>        -0.1576
     25 H1          1.0042    1.8801    0.0026 H         1 <0>         0.0737
     26 H2         -0.5455    1.8639   -0.8728 H         1 <0>         0.0712
     27 H3         -0.5286    1.8543    0.9071 H         1 <0>         0.0676
     28 H4          0.0049   -0.1140   -2.0774 H         1 <0>         0.1276
     29 H5         -0.5600    0.9051    2.4976 H         1 <0>         0.1391
     30 H6         -0.7605   -0.6039    7.0229 H         1 <0>         0.1701
     31 H7          0.6772   -3.9033    2.3867 H         1 <0>         0.1409
     32 H8          0.4849   -4.7971    5.7758 H         1 <0>         0.1053
     33 H9         -0.1940   -4.9349    4.1362 H         1 <0>         0.0788
     34 H10         1.5159   -4.4925    4.3572 H         1 <0>         0.0786
     35 H11         2.6354   -3.3984   -0.2291 H         1 <0>         0.0537
     36 H12         1.6100   -4.3830    0.8421 H         1 <0>         0.0685
     37 H13         1.3679   -4.4395   -0.9204 H         1 <0>         0.0753
     38 H14         1.7847   -2.2816   -2.3982 H         1 <0>         0.0648
     39 H15         0.7631   -3.7382   -2.4524 H         1 <0>         0.0669
     40 H16         0.2613   -2.2665   -3.3188 H         1 <0>         0.0752
     41 H17        -1.9219   -2.2994   -2.1245 H         1 <0>         0.0701
     42 H18        -1.4288   -3.7713   -1.2534 H         1 <0>         0.0608
     43 H19        -1.9678   -2.3382   -0.3456 H         1 <0>         0.0588
@<TRIPOS>BOND
     1    1    2 1
     2    1   25 1
     3    1   26 1
     4    1   27 1
     5    2    7 1
     6    2    3 2
     7    3    4 1
     8    3   28 1
     9    4    5 1
    10    4   23 1
    11    4   24 1
    12    5    6 1
    13    5   22 1
    14    6   16 ar
    15    6    7 ar
    16    7    8 ar
    17    8    9 ar
    18    8   29 1
    19    9   15 ar
    20    9   10 1
    21   10   11 2
    22   10   18 1
    23   11   12 1
    24   11   30 1
    25   12   13 2
    26   12   14 am
    27   14   15 1
    28   14   17 1
    29   15   16 ar
    30   16   31 1
    31   17   32 1
    32   17   33 1
    33   17   34 1
    34   18   19 1
    35   18   20 1
    36   18   21 1
    37   22   35 1
    38   22   36 1
    39   22   37 1
    40   23   38 1
    41   23   39 1
    42   23   40 1
    43   24   41 1
    44   24   42 1
    45   24   43 1
@<TRIPOS>MOLECULE
CHEMBL314475
   52    55     0     0     0
SMALL
USER_CHARGES

@<TRIPOS>ATOM
      1 C1         -2.6756    0.5232   -1.9740 C.3       1 <0>         0.0272
      2 O1         -2.2625   -0.8203   -1.7161 O.3       1 <0>        -0.3185
      3 C2         -1.3245   -1.3474   -2.5462 C.ar      1 <0>         0.1278
      4 C3         -0.8078   -0.5852   -3.5841 C.ar      1 <0>        -0.2130
      5 C4          0.1458   -1.1232   -4.4261 C.ar      1 <0>        -0.0763
      6 C5          0.5858   -2.4202   -4.2353 C.ar      1 <0>        -0.1516
      7 C6          0.0723   -3.1819   -3.2022 C.ar      1 <0>        -0.0385
      8 C7         -0.8777   -2.6464   -2.3537 C.ar      1 <0>        -0.1500
      9 C8          0.5536   -4.5952   -2.9974 C.3       1 <0>        -0.0741
     10 C9          1.7589   -4.5919   -2.0551 C.3       1 <0>        -0.0738
     11 C10         1.3202   -4.1632   -0.6438 C.3       1 <0>        -0.1173
     12 C11         0.3175   -5.1444   -0.0452 C.3       1 <0>        -0.1204
     13 C12         0.8505   -6.5868   -0.0644 C.3       1 <0>        -0.1152
     14 C13         1.1596   -6.9270   -1.5109 C.3       1 <0>        -0.0969
     15 C14         2.3260   -5.9882   -1.9391 C.3       1 <0>         0.1421
     16 N1          2.8384   -6.6424   -3.1283 N.pl3     1 <0>        -0.5085
     17 N2          2.6330   -8.0017   -2.9968 N.3       1 <0>        -0.4292
     18 C15         1.8541   -8.2743   -1.7550 C.3       1 <0>         0.0027
     19 C16         2.7707   -8.6223   -0.6104 C.2       1 <0>         0.3223
     20 O2          3.9514   -8.7800   -0.8089 O.2       1 <0>        -0.4490
     21 C17         3.4372   -6.0061   -4.2199 C.ar      1 <0>         0.2142
     22 C18         4.4185   -5.0455   -4.0124 C.ar      1 <0>        -0.1272
     23 C19         5.0090   -4.4185   -5.0922 C.ar      1 <0>        -0.1268
     24 C20         4.6233   -4.7471   -6.3808 C.ar      1 <0>         0.0713
     25 C21         3.6452   -5.7045   -6.5900 C.ar      1 <0>        -0.1294
     26 C22         3.0557   -6.3378   -5.5134 C.ar      1 <0>        -0.1115
     27 F1          5.2020   -4.1323   -7.4355 F         1 <0>        -0.1423
     28 H1         -1.8148    1.1880   -1.9029 H         1 <0>         0.0554
     29 H2         -3.1018    0.5864   -2.9753 H         1 <0>         0.0556
     30 H3         -3.4254    0.8199   -1.2406 H         1 <0>         0.1006
     31 H4         -1.1514    0.4277   -3.7338 H         1 <0>         0.1261
     32 H5          0.5480   -0.5304   -5.2344 H         1 <0>         0.1239
     33 H6          1.3315   -2.8390   -4.8948 H         1 <0>         0.1216
     34 H7         -1.2753   -3.2403   -1.5440 H         1 <0>         0.1291
     35 H8         -0.2472   -5.1921   -2.5610 H         1 <0>         0.0796
     36 H9          0.8439   -5.0228   -3.9571 H         1 <0>         0.0807
     37 H10         2.5224   -3.9109   -2.4311 H         1 <0>         0.0803
     38 H11         2.1972   -4.1126    0.0014 H         1 <0>         0.0624
     39 H12         0.8625   -3.1754   -0.6982 H         1 <0>         0.0774
     40 H13         0.1099   -4.8559    0.9852 H         1 <0>         0.0700
     41 H14        -0.6085   -5.1001   -0.6185 H         1 <0>         0.0681
     42 H15         1.7577   -6.6559    0.5358 H         1 <0>         0.0660
     43 H16         0.0936   -7.2680    0.3242 H         1 <0>         0.0799
     44 H17         0.2779   -6.8134   -2.1417 H         1 <0>         0.1130
     45 H18         3.0979   -6.0012   -1.1697 H         1 <0>         0.0533
     46 H19         3.5098   -8.5009   -2.9906 H         1 <0>         0.3361
     47 H20         1.1224   -9.0651   -1.9202 H         1 <0>         0.1412
     48 H21         2.3715   -8.7307    0.3872 H         1 <0>         0.1055
     49 H22         4.7194   -4.7886   -3.0074 H         1 <0>         0.1271
     50 H23         5.7719   -3.6712   -4.9313 H         1 <0>         0.1354
     51 H24         3.3456   -5.9590   -7.5960 H         1 <0>         0.1360
     52 H25         2.2960   -7.0878   -5.6771 H         1 <0>         0.1380
@<TRIPOS>BOND
     1    1    2 1
     2    1   28 1
     3    1   29 1
     4    1   30 1
     5    2    3 1
     6    3    8 ar
     7    3    4 ar
     8    4    5 ar
     9    4   31 1
    10    5    6 ar
    11    5   32 1
    12    6    7 ar
    13    6   33 1
    14    7    8 ar
    15    7    9 1
    16    8   34 1
    17    9   10 1
    18    9   35 1
    19    9   36 1
    20   10   15 1
    21   10   11 1
    22   10   37 1
    23   11   12 1
    24   11   38 1
    25   11   39 1
    26   12   13 1
    27   12   40 1
    28   12   41 1
    29   13   14 1
    30   13   42 1
    31   13   43 1
    32   14   18 1
    33   14   15 1
    34   14   44 1
    35   15   16 1
    36   15   45 1
    37   16   17 1
    38   16   21 1
    39   17   18 1
    40   17   46 1
    41   18   19 1
    42   18   47 1
    43   19   20 2
    44   19   48 1
    45   21   26 ar
    46   21   22 ar
    47   22   23 ar
    48   22   49 1
    49   23   24 ar
    50   23   50 1
    51   24   25 ar
    52   24   27 1
    53   25   26 ar
    54   25   51 1
    55   26   52 1
@<TRIPOS>MOLECULE
CHEMBL559302
   75    80     0     0     0
SMALL
USER_CHARGES

@<TRIPOS>ATOM
      1 C1         -0.1676    1.4281   -0.1630 C.3       1 <0>        -0.1305
      2 C2         -0.0087   -0.0831    0.0153 C.3       1 <0>        -0.0632
      3 C3         -1.3189   -0.8891    0.1655 C.3       1 <0>         0.0509
      4 O1         -2.3499   -0.1959    0.8398 O.3       1 <0>        -0.3546
      5 C4         -1.9196    0.5304    1.9738 C.3       1 <0>         0.1627
      6 H1         -1.4658    1.4651    1.6443 H         1 <0>         0.0835
      7 C5         -0.9149   -0.2395    2.7933 C.2       1 <0>        -0.1084
      8 C6         -1.3219   -1.1278    3.6778 C.2       1 <0>        -0.0814
      9 C7         -2.7592   -1.5817    3.7744 C.3       1 <0>        -0.0826
     10 C8         -2.7712   -3.1116    3.8744 C.3       1 <0>        -0.1645
     11 C9         -1.8176   -3.5754    4.9404 C.2       1 <0>         0.3861
     12 O2         -2.0876   -4.5712    5.5814 O.2       1 <0>        -0.4707
     13 C10        -0.6207   -2.8883    5.2160 C.2       1 <0>        -0.2361
     14 C11        -0.3591   -1.7156    4.6132 C.2       1 <0>         0.0164
     15 C12         0.8778   -0.8929    4.8775 C.3       1 <0>        -0.0903
     16 C13         1.5061   -0.5247    3.5444 C.3       1 <0>        -0.1177
     17 C14         0.5473    0.0660    2.5188 C.3       1 <0>        -0.0325
     18 H2          0.6900    1.1454    2.4663 H         1 <0>         0.0916
     19 C15         0.9042   -0.5465    1.1965 C.3       1 <0>        -0.0879
     20 H3          1.9062   -0.1876    0.9612 H         1 <0>         0.0692
     21 C16         0.9524   -2.0474    1.0278 C.3       1 <0>        -0.1163
     22 C17         1.2088   -2.1740   -0.5032 C.3       1 <0>        -0.1471
     23 C18         0.7171   -0.8566   -1.1454 C.3       1 <0>         0.2457
     24 C19         1.8591   -0.0740   -1.6455 C.1       1 <0>        -0.1779
     25 C20         2.7700    0.5502   -2.0443 C.1       1 <0>        -0.1141
     26 C21         3.8810    1.3115   -2.5308 C.ar      1 <0>         0.0080
     27 C22         4.1809    2.5521   -1.9669 C.ar      1 <0>        -0.0951
     28 C23         5.2530    3.2805   -2.4398 C.ar      1 <0>        -0.1190
     29 C24         6.0299    2.7833   -3.4709 C.ar      1 <0>        -0.1080
     30 C25         5.7379    1.5540   -4.0343 C.ar      1 <0>        -0.1184
     31 C26         4.6717    0.8133   -3.5669 C.ar      1 <0>        -0.0938
     32 O3         -0.1992   -1.1333   -2.2065 O.3       1 <0>        -0.5384
     33 C27        -3.1147    0.8444    2.8365 C.ar      1 <0>        -0.1404
     34 C28        -2.9403    1.4818    4.0512 C.ar      1 <0>        -0.0592
     35 C29        -4.0334    1.7710    4.8442 C.ar      1 <0>        -0.1983
     36 C30        -5.3090    1.4209    4.4204 C.ar      1 <0>         0.2174
     37 C31        -5.4806    0.7807    3.1996 C.ar      1 <0>        -0.2011
     38 C32        -4.3838    0.4995    2.4089 C.ar      1 <0>        -0.0488
     39 N1         -6.4167    1.7115    5.2201 N.pl3     1 <0>        -0.6386
     40 C33        -6.2479    2.4876    6.4511 C.3       1 <0>         0.0925
     41 C34        -7.7472    1.2401    4.8279 C.3       1 <0>         0.0881
     42 H4          0.7049    1.8265   -0.6809 H         1 <0>         0.0625
     43 H5         -1.0631    1.6326   -0.7498 H         1 <0>         0.0718
     44 H6         -0.2577    1.9019    0.8145 H         1 <0>         0.0705
     45 H7         -1.6754   -1.1597   -0.8284 H         1 <0>         0.1102
     46 H8         -1.1012   -1.8057    0.7136 H         1 <0>         0.0667
     47 H9         -3.2221   -1.1513    4.6625 H         1 <0>         0.0785
     48 H10        -3.3051   -1.2668    2.8850 H         1 <0>         0.1079
     49 H11        -3.7782   -3.4490    4.1201 H         1 <0>         0.0940
     50 H12        -2.4752   -3.5378    2.9158 H         1 <0>         0.0973
     51 H13         0.0899   -3.3043    5.9148 H         1 <0>         0.1350
     52 H14         0.6058    0.0143    5.4171 H         1 <0>         0.0889
     53 H15         1.5856   -1.4750    5.4675 H         1 <0>         0.0836
     54 H16         2.3008    0.1985    3.7276 H         1 <0>         0.0735
     55 H17         1.9556   -1.4212    3.1175 H         1 <0>         0.0718
     56 H18         1.7736   -2.4797    1.5996 H         1 <0>         0.0785
     57 H19         0.0019   -2.5034    1.3047 H         1 <0>         0.0855
     58 H20         2.2738   -2.3071   -0.6934 H         1 <0>         0.0764
     59 H21         0.6490   -3.0176   -0.9068 H         1 <0>         0.0868
     60 H22         3.5749    2.9415   -1.1621 H         1 <0>         0.1254
     61 H23         5.4859    4.2410   -2.0044 H         1 <0>         0.1289
     62 H24         6.8678    3.3575   -3.8378 H         1 <0>         0.1272
     63 H25         6.3483    1.1714   -4.8390 H         1 <0>         0.1293
     64 H26         4.4475   -0.1482   -4.0045 H         1 <0>         0.1267
     65 H27         0.1934   -1.6095   -2.9510 H         1 <0>         0.3821
     66 H28        -1.9482    1.7534    4.3803 H         1 <0>         0.1172
     67 H29        -3.8964    2.2685    5.7930 H         1 <0>         0.1212
     68 H30        -6.4711    0.5068    2.8673 H         1 <0>         0.1235
     69 H31        -4.5169    0.0057    1.4577 H         1 <0>         0.1325
     70 H32        -6.3586    3.5491    6.2295 H         1 <0>         0.0482
     71 H33        -7.0040    2.1872    7.1766 H         1 <0>         0.0658
     72 H34        -5.2557    2.3040    6.8633 H         1 <0>         0.0687
     73 H35        -7.6900    0.7639    3.8491 H         1 <0>         0.0789
     74 H36        -8.1084    0.5198    5.5619 H         1 <0>         0.0524
     75 H37        -8.4331    2.0860    4.7810 H         1 <0>         0.0554
@<TRIPOS>BOND
     1    1    2 1
     2    1   42 1
     3    1   43 1
     4    1   44 1
     5    2   19 1
     6    2   23 1
     7    2    3 1
     8    3    4 1
     9    3   45 1
    10    3   46 1
    11    4    5 1
    12    5    6 1
    13    5    7 1
    14    5   33 1
    15    7   17 1
    16    7    8 2
    17    8   14 1
    18    8    9 1
    19    9   10 1
    20    9   47 1
    21    9   48 1
    22   10   11 1
    23   10   49 1
    24   10   50 1
    25   11   12 2
    26   11   13 1
    27   13   14 2
    28   13   51 1
    29   14   15 1
    30   15   16 1
    31   15   52 1
    32   15   53 1
    33   16   17 1
    34   16   54 1
    35   16   55 1
    36   17   18 1
    37   17   19 1
    38   19   20 1
    39   19   21 1
    40   21   22 1
    41   21   56 1
    42   21   57 1
    43   22   23 1
    44   22   58 1
    45   22   59 1
    46   23   24 1
    47   23   32 1
    48   24   25 3
    49   25   26 1
    50   26   31 ar
    51   26   27 ar
    52   27   28 ar
    53   27   60 1
    54   28   29 ar
    55   28   61 1
    56   29   30 ar
    57   29   62 1
    58   30   31 ar
    59   30   63 1
    60   31   64 1
    61   32   65 1
    62   33   38 ar
    63   33   34 ar
    64   34   35 ar
    65   34   66 1
    66   35   36 ar
    67   35   67 1
    68   36   37 ar
    69   36   39 1
    70   37   38 ar
    71   37   68 1
    72   38   69 1
    73   39   40 1
    74   39   41 1
    75   40   70 1
    76   40   71 1
    77   40   72 1
    78   41   73 1
    79   41   74 1
    80   41   75 1
@<TRIPOS>MOLECULE
CHEMBL453579
   57    61     0     0     0
SMALL
USER_CHARGES

@<TRIPOS>ATOM
      1 C1          0.1472    1.4531    0.1227 C.3       1 <0>        -0.1228
      2 C2          0.1007   -0.0521    0.0656 C.2       1 <0>        -0.1075
      3 C3          0.0895   -0.6152   -1.0999 C.2       1 <0>        -0.1734
      4 C4          0.0339   -2.0992   -1.3162 C.3       1 <0>        -0.0810
      5 H1         -0.9771   -2.3842   -1.6072 H         1 <0>         0.1036
      6 C5          0.4176   -2.8340   -0.0299 C.3       1 <0>        -0.1184
      7 C6         -0.3965   -2.2428    1.1279 C.3       1 <0>        -0.1173
      8 C7          0.0763   -0.8050    1.3635 C.3       1 <0>        -0.0855
      9 C8          1.0101   -2.4865   -2.4287 C.3       1 <0>         0.1238
     10 H2          1.0742   -3.5729   -2.4886 H         1 <0>         0.1492
     11 C9          0.5076   -1.9456   -3.7409 C.ar      1 <0>        -0.0526
     12 C10         0.8966   -0.6679   -4.1477 C.ar      1 <0>        -0.0911
     13 C11         0.4266   -0.1329   -5.3422 C.ar      1 <0>        -0.0505
     14 C12        -0.4198   -0.8731   -6.1472 C.ar      1 <0>        -0.1741
     15 C13        -0.7998   -2.1463   -5.7614 C.ar      1 <0>         0.2289
     16 C14        -0.3387   -2.6890   -4.5485 C.ar      1 <0>        -0.0972
     17 C15        -0.7792   -4.0456   -4.1661 C.2       1 <0>        -0.0659
     18 C16        -1.3261   -4.8399   -5.0774 C.2       1 <0>        -0.1669
     19 C17        -1.4931   -4.3871   -6.5035 C.3       1 <0>         0.2130
     20 N1         -1.6443   -2.9279   -6.5521 N.pl3     1 <0>        -0.7387
     21 C18        -0.2614   -4.7960   -7.3138 C.3       1 <0>        -0.1590
     22 C19        -2.7358   -5.0474   -7.1039 C.3       1 <0>        -0.1528
     23 C20        -0.6078   -4.5257   -2.7479 C.3       1 <0>        -0.1579
     24 C21         1.8421    0.0779   -3.2836 C.ar      1 <0>        -0.0400
     25 C22         2.0776    1.4344   -3.4677 C.ar      1 <0>        -0.1327
     26 C23         2.9535    2.0973   -2.6265 C.ar      1 <0>         0.1084
     27 C24         3.5912    1.4117   -1.6049 C.ar      1 <0>        -0.1679
     28 C25         3.3657    0.0584   -1.4205 C.ar      1 <0>         0.1138
     29 C26         2.4979   -0.6189   -2.2626 C.ar      1 <0>         0.0988
     30 O1          2.2995   -1.9550   -2.1293 O.3       1 <0>        -0.2899
     31 F1          3.9911   -0.6014   -0.4211 F         1 <0>        -0.1214
     32 F2          3.1881    3.4162   -2.8019 F         1 <0>        -0.1297
     33 H3          1.1856    1.7842    0.1373 H         1 <0>         0.0646
     34 H4         -0.3533    1.8656   -0.7533 H         1 <0>         0.0607
     35 H5         -0.3569    1.7982    1.0253 H         1 <0>         0.0629
     36 H6          0.1219    0.0226   -1.9708 H         1 <0>         0.1118
     37 H7          0.1911   -3.8953   -0.1328 H         1 <0>         0.0695
     38 H8          1.4817   -2.7006    0.1647 H         1 <0>         0.0764
     39 H9         -1.4557   -2.2464    0.8704 H         1 <0>         0.0643
     40 H10        -0.2336   -2.8334    2.0294 H         1 <0>         0.0690
     41 H11         1.0778   -0.8161    1.7936 H         1 <0>         0.0748
     42 H12        -0.6062   -0.3110    2.0550 H         1 <0>         0.0712
     43 H13         0.7231    0.8615   -5.6415 H         1 <0>         0.1315
     44 H14        -0.7838   -0.4580   -7.0754 H         1 <0>         0.1309
     45 H15        -1.6572   -5.8273   -4.7914 H         1 <0>         0.1256
     46 H16        -2.3151   -2.5168   -7.1195 H         1 <0>         0.4044
     47 H17        -0.1521   -5.8802   -7.2866 H         1 <0>         0.0671
     48 H18        -0.3809   -4.4688   -8.3467 H         1 <0>         0.0610
     49 H19         0.6263   -4.3305   -6.8856 H         1 <0>         0.0574
     50 H20        -3.6145   -4.7612   -6.5259 H         1 <0>         0.0638
     51 H21        -2.8580   -4.7204   -8.1365 H         1 <0>         0.0642
     52 H22        -2.6203   -6.1309   -7.0772 H         1 <0>         0.0754
     53 H23        -0.7612   -3.6930   -2.0614 H         1 <0>         0.0967
     54 H24        -1.3372   -5.3082   -2.5387 H         1 <0>         0.0716
     55 H25         0.3988   -4.9231   -2.6180 H         1 <0>         0.0791
     56 H26         1.5797    1.9687   -4.2634 H         1 <0>         0.1469
     57 H27         4.2686    1.9369   -0.9479 H         1 <0>         0.1539
@<TRIPOS>BOND
     1    1    2 1
     2    1   33 1
     3    1   34 1
     4    1   35 1
     5    2    8 1
     6    2    3 2
     7    3    4 1
     8    3   36 1
     9    4    5 1
    10    4    6 1
    11    4    9 1
    12    6    7 1
    13    6   37 1
    14    6   38 1
    15    7    8 1
    16    7   39 1
    17    7   40 1
    18    8   41 1
    19    8   42 1
    20    9   10 1
    21    9   30 1
    22    9   11 1
    23   11   16 ar
    24   11   12 ar
    25   12   13 ar
    26   12   24 1
    27   13   14 ar
    28   13   43 1
    29   14   15 ar
    30   14   44 1
    31   15   20 1
    32   15   16 ar
    33   16   17 1
    34   17   18 2
    35   17   23 1
    36   18   19 1
    37   18   45 1
    38   19   20 1
    39   19   21 1
    40   19   22 1
    41   20   46 1
    42   21   47 1
    43   21   48 1
    44   21   49 1
    45   22   50 1
    46   22   51 1
    47   22   52 1
    48   23   53 1
    49   23   54 1
    50   23   55 1
    51   24   29 ar
    52   24   25 ar
    53   25   26 ar
    54   25   56 1
    55   26   27 ar
    56   26   32 1
    57   27   28 ar
    58   27   57 1
    59   28   29 ar
    60   28   31 1
    61   29   30 1
@<TRIPOS>MOLECULE
CHEMBL188780
   41    44     0     0     0
SMALL
USER_CHARGES

@<TRIPOS>ATOM
      1 C1         -1.3268    1.0881    0.1258 C.3       1 <0>         0.0550
      2 N1         -0.5785   -0.1693    0.0533 N.pl3     1 <0>        -0.4144
      3 C2         -0.4368   -0.9571   -1.0668 C.2       1 <0>         0.0561
      4 C3          0.3365   -2.0489   -0.7256 C.2       1 <0>        -0.1074
      5 C4          0.6690   -1.9213    0.6225 C.2       1 <0>        -0.1772
      6 C5          0.1008   -0.7541    1.0846 C.2       1 <0>         0.0964
      7 C6          0.2059   -0.2266    2.4605 C.ar      1 <0>        -0.0130
      8 C7         -0.0133    1.1320    2.7073 C.ar      1 <0>        -0.1162
      9 C8          0.0840    1.6265    3.9893 C.ar      1 <0>        -0.0966
     10 C9          0.4008    0.7761    5.0404 C.ar      1 <0>         0.0941
     11 C10         0.6212   -0.5833    4.8005 C.ar      1 <0>         0.0999
     12 C11         0.5182   -1.0849    3.5151 C.ar      1 <0>        -0.0808
     13 N2          0.9145   -1.1666    6.0316 N.am      1 <0>        -0.5313
     14 C12         0.8742   -0.2070    6.9750 C.2       1 <0>         0.6818
     15 N3          0.5672    0.9746    6.4080 N.am      1 <0>        -0.6441
     16 O1          1.0838   -0.3815    8.1609 O.2       1 <0>        -0.5430
     17 C13         1.2147   -2.5821    6.2602 C.3       1 <0>         0.1572
     18 C14         0.2266   -3.1728    7.2870 C.3       1 <0>        -0.1363
     19 C15         1.0868   -4.1548    8.1206 C.3       1 <0>        -0.1199
     20 C16         2.4381   -3.4075    8.2416 C.3       1 <0>        -0.1212
     21 C17         2.6208   -2.7313    6.8671 C.3       1 <0>        -0.1321
     22 C18        -0.9943   -0.6913   -2.3588 C.1       1 <0>         0.2767
     23 N4         -1.4365   -0.4804   -3.3837 N.1       1 <0>        -0.4038
     24 H1         -0.6446    1.9257   -0.0194 H         1 <0>         0.0865
     25 H2         -2.0901    1.1021   -0.6522 H         1 <0>         0.0877
     26 H3         -1.8024    1.1720    1.1030 H         1 <0>         0.0997
     27 H4          0.6299   -2.8544   -1.3825 H         1 <0>         0.1542
     28 H5          1.2672   -2.6110    1.1995 H         1 <0>         0.1525
     29 H6         -0.2591    1.7952    1.8911 H         1 <0>         0.1372
     30 H7         -0.0858    2.6765    4.1769 H         1 <0>         0.1363
     31 H8          0.6834   -2.1357    3.3283 H         1 <0>         0.1388
     32 H9          1.1528   -3.1330    5.3217 H         1 <0>         0.1045
     33 H10        -0.1784   -2.3858    7.9232 H         1 <0>         0.0816
     34 H11        -0.5774   -3.7060    6.7797 H         1 <0>         0.0732
     35 H12         0.6452   -4.3161    9.1040 H         1 <0>         0.0719
     36 H13         1.2141   -5.1002    7.5933 H         1 <0>         0.0704
     37 H14         2.3903   -2.6584    9.0320 H         1 <0>         0.0745
     38 H15         3.2480   -4.1120    8.4309 H         1 <0>         0.0679
     39 H16         3.2410   -3.3553    6.2236 H         1 <0>         0.0764
     40 H17         3.0798   -1.7506    6.9916 H         1 <0>         0.0714
     41 H18         0.4774    1.8209    6.8735 H         1 <0>         0.4354
@<TRIPOS>BOND
     1    1    2 1
     2    1   24 1
     3    1   25 1
     4    1   26 1
     5    2    6 1
     6    2    3 1
     7    3    4 2
     8    3   22 1
     9    4    5 1
    10    4   27 1
    11    5    6 2
    12    5   28 1
    13    6    7 1
    14    7   12 ar
    15    7    8 ar
    16    8    9 ar
    17    8   29 1
    18    9   10 ar
    19    9   30 1
    20   10   15 1
    21   10   11 ar
    22   11   12 ar
    23   11   13 1
    24   12   31 1
    25   13   14 am
    26   13   17 1
    27   14   15 am
    28   14   16 2
    29   15   41 1
    30   17   21 1
    31   17   18 1
    32   17   32 1
    33   18   19 1
    34   18   33 1
    35   18   34 1
    36   19   20 1
    37   19   35 1
    38   19   36 1
    39   20   21 1
    40   20   37 1
    41   20   38 1
    42   21   39 1
    43   21   40 1
    44   22   23 3
@<TRIPOS>MOLECULE
CHEMBL188780__1
   41    44     0     0     0
SMALL
USER_CHARGES

@<TRIPOS>ATOM
      1 C1          1.3695   -2.9221    1.4243 C.3       1 <0>         0.0574
      2 N1          0.6177   -1.9480    0.6292 N.pl3     1 <0>        -0.4163
      3 C2          0.4641   -1.9737   -0.7390 C.2       1 <0>         0.0537
      4 C3         -0.3088   -0.8884   -1.1021 C.2       1 <0>        -0.1062
      5 C4         -0.6289   -0.1937    0.0633 C.2       1 <0>        -0.1738
      6 C5         -0.0539   -0.8643    1.1214 C.2       1 <0>         0.0962
      7 C6         -0.1449   -0.4762    2.5432 C.ar      1 <0>        -0.0042
      8 C7         -0.4577    0.8447    2.8888 C.ar      1 <0>        -0.0991
      9 C8         -0.5451    1.2151    4.1978 C.ar      1 <0>        -0.0554
     10 C9         -0.3221    0.2745    5.2093 C.ar      1 <0>         0.0643
     11 C10        -0.0077   -1.0534    4.8694 C.ar      1 <0>         0.0582
     12 C11         0.0748   -1.4264    3.5395 C.ar      1 <0>        -0.1132
     13 N2          0.1527   -1.7292    6.0679 N.pl3     1 <0>        -0.4848
     14 C12        -0.0601   -0.8295    7.0705 C.2       1 <0>         0.4592
     15 N3         -0.3383    0.3446    6.5653 N.2       1 <0>        -0.4869
     16 O1          0.0059   -1.1100    8.3920 O.3       1 <0>        -0.4382
     17 C13         0.4879   -3.1462    6.2285 C.3       1 <0>         0.1339
     18 C14        -0.5958   -3.8537    7.0681 C.3       1 <0>        -0.1354
     19 C15         0.1948   -4.8664    7.9333 C.3       1 <0>        -0.1211
     20 C16         1.4819   -4.0810    8.2881 C.3       1 <0>        -0.1234
     21 C17         1.8089   -3.2907    7.0042 C.3       1 <0>        -0.1349
     22 C18         1.0103   -2.9536   -1.6290 C.1       1 <0>         0.2772
     23 N4          1.4437   -3.7309   -2.3351 N.1       1 <0>        -0.4049
     24 H1          0.6880   -3.6815    1.8078 H         1 <0>         0.0829
     25 H2          2.1260   -3.3955    0.7984 H         1 <0>         0.0882
     26 H3          1.8539   -2.4141    2.2582 H         1 <0>         0.0962
     27 H4         -0.6098   -0.6257   -2.1055 H         1 <0>         0.1549
     28 H5         -1.2239    0.7054    0.1263 H         1 <0>         0.1555
     29 H6         -0.6306    1.5753    2.1124 H         1 <0>         0.1415
     30 H7         -0.7865    2.2360    4.4544 H         1 <0>         0.1390
     31 H8          0.3120   -2.4463    3.2749 H         1 <0>         0.1260
     32 H9          0.8848   -0.9884    8.7764 H         1 <0>         0.4065
     33 H10         0.5745   -3.6222    5.2518 H         1 <0>         0.1011
     34 H11        -1.1169   -3.1358    7.7015 H         1 <0>         0.0858
     35 H12        -1.3009   -4.3744    6.4201 H         1 <0>         0.0755
     36 H13        -0.3623   -5.1223    8.8344 H         1 <0>         0.0766
     37 H14         0.4343   -5.7611    7.3587 H         1 <0>         0.0719
     38 H15         1.2964   -3.3999    9.1186 H         1 <0>         0.0722
     39 H16         2.2931   -4.7676    8.5305 H         1 <0>         0.0736
     40 H17         2.5363   -3.8376    6.4043 H         1 <0>         0.0815
     41 H18         2.2006   -2.3065    7.2612 H         1 <0>         0.0687
@<TRIPOS>BOND
     1    1    2 1
     2    1   24 1
     3    1   25 1
     4    1   26 1
     5    2    6 1
     6    2    3 1
     7    3    4 2
     8    3   22 1
     9    4    5 1
    10    4   27 1
    11    5    6 2
    12    5   28 1
    13    6    7 1
    14    7   12 ar
    15    7    8 ar
    16    8    9 ar
    17    8   29 1
    18    9   10 ar
    19    9   30 1
    20   10   15 1
    21   10   11 ar
    22   11   12 ar
    23   11   13 1
    24   12   31 1
    25   13   14 1
    26   13   17 1
    27   14   15 2
    28   14   16 1
    29   16   32 1
    30   17   21 1
    31   17   18 1
    32   17   33 1
    33   18   19 1
    34   18   34 1
    35   18   35 1
    36   19   20 1
    37   19   36 1
    38   19   37 1
    39   20   21 1
    40   20   38 1
    41   20   39 1
    42   21   40 1
    43   21   41 1
    44   22   23 3
@<TRIPOS>MOLECULE
CHEMBL1209366
   35    37     0     0     0
SMALL
USER_CHARGES

@<TRIPOS>ATOM
      1 C1          1.3644   -2.9244    1.4263 C.3       1 <0>         0.0559
      2 N1          0.6157   -1.9488    0.6301 N.pl3     1 <0>        -0.4145
      3 C2          0.4641   -1.9749   -0.7371 C.2       1 <0>         0.0560
      4 C3         -0.3060   -0.8886   -1.1019 C.2       1 <0>        -0.1082
      5 C4         -0.6264   -0.1927    0.0634 C.2       1 <0>        -0.1759
      6 C5         -0.0539   -0.8639    1.1214 C.2       1 <0>         0.0899
      7 C6         -0.1454   -0.4750    2.5441 C.ar      1 <0>        -0.0180
      8 C7         -0.4572    0.8404    2.8928 C.ar      1 <0>        -0.0902
      9 C8         -0.5410    1.1966    4.2229 C.ar      1 <0>        -0.0954
     10 C9         -0.3168    0.2537    5.2103 C.ar      1 <0>        -0.1116
     11 C10        -0.0069   -1.0516    4.8717 C.ar      1 <0>        -0.0996
     12 C11         0.0740   -1.4228    3.5455 C.ar      1 <0>        -0.1204
     13 C12        -0.4101    0.6503    6.6612 C.3       1 <0>         0.2357
     14 C13         0.9635    0.9931    7.1776 C.2       1 <0>        -0.1789
     15 C14         1.5269    2.2123    7.3605 C.2       1 <0>        -0.1424
     16 C15         2.8164    2.2879    7.8526 C.2       1 <0>        -0.1572
     17 C16         3.4794    1.1405    8.1378 C.2       1 <0>        -0.1663
     18 S1          2.2682   -0.1008    7.7145 S.3       1 <0>         0.0421
     19 O1         -0.9461   -0.4365    7.4186 O.3       1 <0>        -0.5395
     20 C17         1.0100   -2.9560   -1.6259 C.1       1 <0>         0.2767
     21 N2          1.4430   -3.7344   -2.3310 N.1       1 <0>        -0.4031
     22 H1          0.6807   -3.6822    1.8092 H         1 <0>         0.0859
     23 H2          2.1205   -3.3997    0.8015 H         1 <0>         0.0880
     24 H3          1.8488   -2.4173    2.2607 H         1 <0>         0.0980
     25 H4         -0.6049   -0.6256   -2.1058 H         1 <0>         0.1547
     26 H5         -1.2191    0.7079    0.1255 H         1 <0>         0.1534
     27 H6         -0.6321    1.5774    2.1230 H         1 <0>         0.1354
     28 H7         -0.7818    2.2139    4.4940 H         1 <0>         0.1317
     29 H8          0.1676   -1.7825    5.6474 H         1 <0>         0.1227
     30 H9          0.3112   -2.4430    3.2825 H         1 <0>         0.1293
     31 H10        -1.0623    1.5181    6.7595 H         1 <0>         0.1309
     32 H11         0.9766    3.1113    7.1249 H         1 <0>         0.1353
     33 H12         3.2887    3.2467    8.0073 H         1 <0>         0.1367
     34 H13         4.4794    1.0110    8.5245 H         1 <0>         0.1876
     35 H14        -0.4159   -1.2441    7.3770 H         1 <0>         0.3755
@<TRIPOS>BOND
     1    1    2 1
     2    1   22 1
     3    1   23 1
     4    1   24 1
     5    2    6 1
     6    2    3 1
     7    3    4 2
     8    3   20 1
     9    4    5 1
    10    4   25 1
    11    5    6 2
    12    5   26 1
    13    6    7 1
    14    7   12 ar
    15    7    8 ar
    16    8    9 ar
    17    8   27 1
    18    9   10 ar
    19    9   28 1
    20   10   11 ar
    21   10   13 1
    22   11   12 ar
    23   11   29 1
    24   12   30 1
    25   13   14 1
    26   13   19 1
    27   13   31 1
    28   14   18 1
    29   14   15 2
    30   15   16 1
    31   15   32 1
    32   16   17 2
    33   16   33 1
    34   17   18 1
    35   17   34 1
    36   19   35 1
    37   20   21 3
@<TRIPOS>MOLECULE
CHEMBL1209366__1
   35    37     0     0     0
SMALL
USER_CHARGES

@<TRIPOS>ATOM
      1 C1          1.3644   -2.9244    1.4263 C.3       1 <0>         0.0558
      2 N1          0.6157   -1.9488    0.6301 N.pl3     1 <0>        -0.4145
      3 C2          0.4641   -1.9749   -0.7371 C.2       1 <0>         0.0562
      4 C3         -0.3060   -0.8886   -1.1019 C.2       1 <0>        -0.1083
      5 C4         -0.6264   -0.1927    0.0634 C.2       1 <0>        -0.1760
      6 C5         -0.0539   -0.8639    1.1214 C.2       1 <0>         0.0898
      7 C6         -0.1454   -0.4750    2.5441 C.ar      1 <0>        -0.0176
      8 C7         -0.4572    0.8404    2.8928 C.ar      1 <0>        -0.0904
      9 C8         -0.5410    1.1966    4.2229 C.ar      1 <0>        -0.0952
     10 C9         -0.3168    0.2537    5.2103 C.ar      1 <0>        -0.1114
     11 C10        -0.0069   -1.0516    4.8717 C.ar      1 <0>        -0.0993
     12 C11         0.0740   -1.4228    3.5455 C.ar      1 <0>        -0.1207
     13 C12        -0.4101    0.6503    6.6612 C.3       1 <0>         0.2359
     14 C13        -1.7478    0.2284    7.2123 C.2       1 <0>        -0.1793
     15 C14        -2.8912    0.9481    7.3220 C.2       1 <0>        -0.1429
     16 C15        -4.0115    0.3478    7.8653 C.2       1 <0>        -0.1569
     17 C16        -3.9337   -0.9428    8.2723 C.2       1 <0>        -0.1665
     18 S1         -2.2400   -1.3513    7.8827 S.3       1 <0>         0.0428
     19 O1          0.6325    0.0087    7.3984 O.3       1 <0>        -0.5396
     20 C17         1.0100   -2.9560   -1.6259 C.1       1 <0>         0.2766
     21 N2          1.4430   -3.7344   -2.3310 N.1       1 <0>        -0.4030
     22 H1          0.6807   -3.6822    1.8092 H         1 <0>         0.0856
     23 H2          2.1205   -3.3997    0.8015 H         1 <0>         0.0882
     24 H3          1.8488   -2.4173    2.2607 H         1 <0>         0.0984
     25 H4         -0.6049   -0.6256   -2.1058 H         1 <0>         0.1547
     26 H5         -1.2191    0.7079    0.1255 H         1 <0>         0.1533
     27 H6         -0.6321    1.5774    2.1230 H         1 <0>         0.1355
     28 H7         -0.7818    2.2139    4.4940 H         1 <0>         0.1320
     29 H8          0.1676   -1.7825    5.6474 H         1 <0>         0.1224
     30 H9          0.3112   -2.4430    3.2825 H         1 <0>         0.1292
     31 H10        -0.3053    1.7316    6.7498 H         1 <0>         0.1303
     32 H11        -2.9262    1.9753    6.9903 H         1 <0>         0.1350
     33 H12        -4.9350    0.8990    7.9644 H         1 <0>         0.1367
     34 H13        -4.6989   -1.5640    8.7138 H         1 <0>         0.1877
     35 H14         0.6015   -0.9572    7.3640 H         1 <0>         0.3754
@<TRIPOS>BOND
     1    1    2 1
     2    1   22 1
     3    1   23 1
     4    1   24 1
     5    2    6 1
     6    2    3 1
     7    3    4 2
     8    3   20 1
     9    4    5 1
    10    4   25 1
    11    5    6 2
    12    5   26 1
    13    6    7 1
    14    7   12 ar
    15    7    8 ar
    16    8    9 ar
    17    8   27 1
    18    9   10 ar
    19    9   28 1
    20   10   11 ar
    21   10   13 1
    22   11   12 ar
    23   11   29 1
    24   12   30 1
    25   13   14 1
    26   13   19 1
    27   13   31 1
    28   14   18 1
    29   14   15 2
    30   15   16 1
    31   15   32 1
    32   16   17 2
    33   16   33 1
    34   17   18 1
    35   17   34 1
    36   19   35 1
    37   20   21 3
@<TRIPOS>MOLECULE
CHEMBL90766
   38    41     0     0     0
SMALL
USER_CHARGES

@<TRIPOS>ATOM
      1 C1         -0.0184    1.5028    0.0103 C.3       1 <0>        -0.1179
      2 C2          0.0021   -0.0041    0.0020 C.2       1 <0>        -0.0671
      3 C3          0.0057   -0.6647   -1.1504 C.2       1 <0>        -0.1642
      4 C4          0.0109   -2.1699   -1.1841 C.3       1 <0>         0.2125
      5 N1          0.6710   -2.6947    0.0182 N.pl3     1 <0>        -0.7377
      6 C5          0.3643   -2.1128    1.2500 C.ar      1 <0>         0.2147
      7 C6          0.0243   -0.7516    1.2738 C.ar      1 <0>        -0.0838
      8 C7         -0.2877   -0.1316    2.4838 C.ar      1 <0>        -0.0449
      9 C8         -0.2542   -0.8633    3.6615 C.ar      1 <0>        -0.0724
     10 C9          0.0937   -2.2264    3.6312 C.ar      1 <0>        -0.1287
     11 C10         0.3938   -2.8454    2.4240 C.ar      1 <0>        -0.0994
     12 C11         0.0436   -2.7377    5.0199 C.2       1 <0>         0.4526
     13 O1          0.2839   -3.8727    5.3799 O.2       1 <0>        -0.4136
     14 C12        -0.3541   -1.6049    5.8877 C.ar      1 <0>        -0.1518
     15 C13        -0.5323   -0.4773    5.0690 C.ar      1 <0>        -0.0432
     16 C14        -0.9098    0.7317    5.6417 C.ar      1 <0>         0.1089
     17 C15        -1.1088    0.8172    7.0134 C.ar      1 <0>        -0.1164
     18 C16        -0.9338   -0.2931    7.8155 C.ar      1 <0>        -0.1006
     19 C17        -0.5570   -1.5044    7.2595 C.ar      1 <0>        -0.0524
     20 F1         -1.0826    1.8231    4.8644 F         1 <0>        -0.1314
     21 C18        -1.4299   -2.6819   -1.2373 C.3       1 <0>        -0.1598
     22 C19         0.7643   -2.6477   -2.4270 C.3       1 <0>        -0.1528
     23 H1          1.0042    1.8801    0.0026 H         1 <0>         0.0729
     24 H2         -0.5455    1.8639   -0.8728 H         1 <0>         0.0703
     25 H3         -0.5286    1.8543    0.9071 H         1 <0>         0.0693
     26 H4          0.0046   -0.1129   -2.0787 H         1 <0>         0.1274
     27 H5          1.3038   -3.4273   -0.0417 H         1 <0>         0.4057
     28 H6         -0.5541    0.9149    2.5035 H         1 <0>         0.1374
     29 H7          0.6608   -3.8917    2.4041 H         1 <0>         0.1374
     30 H8         -1.4019    1.7580    7.4556 H         1 <0>         0.1473
     31 H9         -1.0914   -0.2166    8.8812 H         1 <0>         0.1465
     32 H10        -0.4218   -2.3702    7.8908 H         1 <0>         0.1420
     33 H11        -1.9186   -2.2994   -2.1334 H         1 <0>         0.0682
     34 H12        -1.4276   -3.7716   -1.2617 H         1 <0>         0.0621
     35 H13        -1.9701   -2.3395   -0.3546 H         1 <0>         0.0574
     36 H14         1.7901   -2.2809   -2.3935 H         1 <0>         0.0644
     37 H15         0.7687   -3.7374   -2.4526 H         1 <0>         0.0651
     38 H16         0.2707   -2.2653   -3.3205 H         1 <0>         0.0762
@<TRIPOS>BOND
     1    1    2 1
     2    1   23 1
     3    1   24 1
     4    1   25 1
     5    2    7 1
     6    2    3 2
     7    3    4 1
     8    3   26 1
     9    4    5 1
    10    4   21 1
    11    4   22 1
    12    5    6 1
    13    5   27 1
    14    6   11 ar
    15    6    7 ar
    16    7    8 ar
    17    8    9 ar
    18    8   28 1
    19    9   15 1
    20    9   10 ar
    21   10   11 ar
    22   10   12 1
    23   11   29 1
    24   12   13 2
    25   12   14 1
    26   14   19 ar
    27   14   15 ar
    28   15   16 ar
    29   16   17 ar
    30   16   20 1
    31   17   18 ar
    32   17   30 1
    33   18   19 ar
    34   18   31 1
    35   19   32 1
    36   21   33 1
    37   21   34 1
    38   21   35 1
    39   22   36 1
    40   22   37 1
    41   22   38 1
@<TRIPOS>MOLECULE
CHEMBL232760
   61    65     0     0     0
SMALL
USER_CHARGES

@<TRIPOS>ATOM
      1 C1         -0.1130    1.3807   -0.1915 C.3       1 <0>        -0.1154
      2 C2          0.2384   -0.0803   -0.0775 C.ar      1 <0>        -0.0890
      3 C3          0.8119   -0.7383   -1.1524 C.ar      1 <0>        -0.1173
      4 C4          1.1386   -2.0801   -1.0585 C.ar      1 <0>        -0.1198
      5 C5          0.8949   -2.7729    0.1082 C.ar      1 <0>        -0.1021
      6 C6          0.3153   -2.1154    1.1999 C.ar      1 <0>        -0.0496
      7 C7         -0.0068   -0.7563    1.0982 C.ar      1 <0>        -0.1079
      8 C8          0.0522   -2.8452    2.4466 C.2       1 <0>        -0.1136
      9 C9         -0.0315   -4.1933    2.4352 C.2       1 <0>         0.0966
     10 C10        -0.1654   -4.9752    3.5808 C.2       1 <0>        -0.0995
     11 C11        -1.0101   -6.0780    3.4766 C.2       1 <0>        -0.0201
     12 C12        -1.3212   -6.8559    4.6820 C.2       1 <0>        -0.1151
     13 C13        -1.2130   -6.2759    5.8882 C.2       1 <0>        -0.1250
     14 C14        -0.7117   -4.8534    5.9280 C.3       1 <0>         0.1204
     15 C15         0.4531   -4.7845    4.9273 C.3       1 <0>         0.0119
     16 C16         1.3078   -3.5941    5.1421 C.2       1 <0>        -0.0971
     17 C17         1.1397   -2.7858    6.1561 C.2       1 <0>        -0.1472
     18 C18         0.1362   -3.0202    7.2445 C.3       1 <0>         0.1462
     19 N1         -0.2928   -4.4257    7.2495 N.3       1 <0>        -0.6694
     20 C19        -1.0639   -2.0981    7.0491 C.3       1 <0>        -0.1764
     21 C20         0.7918   -2.7014    8.5929 C.3       1 <0>        -0.1340
     22 C21         2.4985   -3.3338    4.2450 C.3       1 <0>        -0.1233
     23 C22        -1.5257   -6.4229    2.1426 C.ar      1 <0>        -0.1194
     24 C23        -0.9700   -5.7714    1.0246 C.ar      1 <0>         0.1246
     25 C24        -1.4008   -6.0872   -0.2502 C.ar      1 <0>        -0.1276
     26 C25        -2.3915   -7.0349   -0.4332 C.ar      1 <0>        -0.0917
     27 C26        -2.9610   -7.6693    0.6590 C.ar      1 <0>         0.0631
     28 C27        -2.5352   -7.3657    1.9490 C.ar      1 <0>         0.1225
     29 O1         -3.1297   -7.9868    3.0016 O.3       1 <0>        -0.3254
     30 C28        -4.2871   -7.3584    3.5564 C.3       1 <0>         0.0406
     31 O2         -3.9422   -8.5942    0.4723 O.3       1 <0>        -0.4876
     32 O3         -0.0236   -4.8143    1.2153 O.3       1 <0>        -0.2306
     33 H1          0.7388    1.9847    0.1211 H         1 <0>         0.0704
     34 H2         -0.3639    1.6144   -1.2262 H         1 <0>         0.0664
     35 H3         -0.9680    1.5998    0.4481 H         1 <0>         0.0654
     36 H4          1.0051   -0.2016   -2.0695 H         1 <0>         0.1203
     37 H5          1.5853   -2.5858   -1.9018 H         1 <0>         0.1223
     38 H6          1.1501   -3.8199    0.1797 H         1 <0>         0.1387
     39 H7         -0.4498   -0.2404    1.9372 H         1 <0>         0.1211
     40 H8         -0.0744   -2.3041    3.3727 H         1 <0>         0.1416
     41 H9         -1.6137   -7.8927    4.6147 H         1 <0>         0.1392
     42 H10        -1.4712   -6.7971    6.7912 H         1 <0>         0.1341
     43 H11        -1.5161   -4.2161    5.5585 H         1 <0>         0.0492
     44 H12         1.0785   -5.6775    5.1187 H         1 <0>         0.0970
     45 H13         1.7561   -1.9036    6.2096 H         1 <0>         0.1155
     46 H14        -1.0079   -4.5853    7.9432 H         1 <0>         0.3515
     47 H15        -1.5258   -2.3026    6.0832 H         1 <0>         0.0545
     48 H16        -1.7898   -2.2731    7.8432 H         1 <0>         0.0591
     49 H17        -0.7335   -1.0599    7.0812 H         1 <0>         0.0671
     50 H18         1.1133   -1.6600    8.6034 H         1 <0>         0.0620
     51 H19         0.0725   -2.8677    9.3949 H         1 <0>         0.0572
     52 H20         1.6556   -3.3499    8.7393 H         1 <0>         0.0657
     53 H21         2.1869   -2.7277    3.3944 H         1 <0>         0.0731
     54 H22         3.2675   -2.8036    4.8067 H         1 <0>         0.0650
     55 H23         2.8986   -4.2827    3.8879 H         1 <0>         0.0631
     56 H24        -0.9643   -5.5958   -1.1074 H         1 <0>         0.1450
     57 H25        -2.7210   -7.2803   -1.4312 H         1 <0>         0.1462
     58 H26        -4.0238   -6.3631    3.9143 H         1 <0>         0.0450
     59 H27        -5.0585   -7.2769    2.7907 H         1 <0>         0.0521
     60 H28        -4.6617   -7.9560    4.3874 H         1 <0>         0.0975
     61 H29        -3.6156   -9.4982    0.3666 H         1 <0>         0.3929
@<TRIPOS>BOND
     1    1    2 1
     2    1   33 1
     3    1   34 1
     4    1   35 1
     5    2    7 ar
     6    2    3 ar
     7    3    4 ar
     8    3   36 1
     9    4    5 ar
    10    4   37 1
    11    5    6 ar
    12    5   38 1
    13    6    7 ar
    14    6    8 1
    15    7   39 1
    16    8    9 2
    17    8   40 1
    18    9   32 1
    19    9   10 1
    20   10   15 1
    21   10   11 2
    22   11   12 1
    23   11   23 1
    24   12   13 2
    25   12   41 1
    26   13   14 1
    27   13   42 1
    28   14   19 1
    29   14   15 1
    30   14   43 1
    31   15   16 1
    32   15   44 1
    33   16   17 2
    34   16   22 1
    35   17   18 1
    36   17   45 1
    37   18   19 1
    38   18   20 1
    39   18   21 1
    40   19   46 1
    41   20   47 1
    42   20   48 1
    43   20   49 1
    44   21   50 1
    45   21   51 1
    46   21   52 1
    47   22   53 1
    48   22   54 1
    49   22   55 1
    50   23   28 ar
    51   23   24 ar
    52   24   25 ar
    53   24   32 1
    54   25   26 ar
    55   25   56 1
    56   26   27 ar
    57   26   57 1
    58   27   28 ar
    59   27   31 1
    60   28   29 1
    61   29   30 1
    62   30   58 1
    63   30   59 1
    64   30   60 1
    65   31   61 1
@<TRIPOS>MOLECULE
CHEMBL232760__1
   62    66     0     0     0
SMALL
USER_CHARGES

@<TRIPOS>ATOM
      1 C1         -1.7308   -2.7562   -2.3753 C.3       1 <0>        -0.1177
      2 C2         -0.8570   -2.2470   -1.2580 C.ar      1 <0>        -0.0902
      3 C3         -0.1013   -1.1012   -1.4400 C.ar      1 <0>        -0.1050
      4 C4          0.7046   -0.6248   -0.4204 C.ar      1 <0>        -0.1186
      5 C5          0.7611   -1.2889    0.7863 C.ar      1 <0>        -0.1056
      6 C6          0.0003   -2.4483    0.9789 C.ar      1 <0>        -0.0708
      7 C7         -0.8167   -2.9201   -0.0560 C.ar      1 <0>        -0.0815
      8 C8          0.0542   -3.1623    2.2609 C.2       1 <0>        -0.0824
      9 C9         -0.1485   -4.3949    2.2987 C.2       1 <0>         0.0849
     10 C10        -0.2702   -5.1966    3.4489 C.2       1 <0>        -0.0848
     11 C11         0.6095   -6.3633    3.4048 C.2       1 <0>        -0.0165
     12 C12         0.8884   -7.0207    4.6636 C.2       1 <0>        -0.0302
     13 C13        -0.0257   -6.9082    5.6922 C.2       1 <0>        -0.2569
     14 C14        -1.2358   -6.1855    5.5222 C.3       1 <0>         0.0855
     15 C15        -0.9933   -4.9127    4.6032 C.3       1 <0>        -0.0153
     16 C16        -2.3937   -4.2594    4.4717 C.2       1 <0>        -0.0859
     17 C17        -3.3716   -4.4981    5.3547 C.2       1 <0>        -0.1893
     18 C18        -3.1067   -5.2391    6.6513 C.3       1 <0>         0.0768
     19 N1         -1.7477   -5.6792    6.7728 N.4       1 <0>        -0.4684
     20 C19        -4.0858   -6.4328    6.6838 C.3       1 <0>        -0.1667
     21 C20        -3.5125   -4.3017    7.8076 C.3       1 <0>        -0.1640
     22 C21        -2.7800   -3.5492    3.2547 C.3       1 <0>        -0.1417
     23 C22         1.0451   -6.8662    2.1277 C.ar      1 <0>        -0.0943
     24 C23         0.5505   -6.2535    0.9191 C.ar      1 <0>         0.1133
     25 C24         0.8685   -6.6590   -0.3303 C.ar      1 <0>        -0.1023
     26 C25         1.7674   -7.7900   -0.4290 C.ar      1 <0>        -0.0918
     27 C26         2.1642   -8.4678    0.7548 C.ar      1 <0>         0.0713
     28 C27         1.7594   -7.9731    2.0213 C.ar      1 <0>         0.1257
     29 O1          2.3417   -8.6245    3.0953 O.3       1 <0>        -0.3319
     30 C28         1.5588   -9.6255    3.7488 C.3       1 <0>         0.0263
     31 O2          2.9938   -9.5190    0.6298 O.3       1 <0>        -0.4768
     32 O3         -0.2852   -5.0921    1.0420 O.3       1 <0>        -0.2674
     33 H1         -2.7200   -2.3052   -2.2972 H         1 <0>         0.0721
     34 H2         -1.2854   -2.4915   -3.3343 H         1 <0>         0.0695
     35 H3         -1.8189   -3.8402   -2.3025 H         1 <0>         0.0666
     36 H4         -0.1407   -0.5763   -2.3830 H         1 <0>         0.1250
     37 H5          1.2911    0.2695   -0.5709 H         1 <0>         0.1266
     38 H6          1.3907   -0.9161    1.5807 H         1 <0>         0.1230
     39 H7         -1.4104   -3.8111    0.0859 H         1 <0>         0.1336
     40 H8          0.2690   -2.6222    3.1712 H         1 <0>         0.1395
     41 H9          1.8051   -7.5421    4.8280 H         1 <0>         0.1642
     42 H10         0.2642   -7.3741    6.7087 H         1 <0>         0.1658
     43 H11        -1.9544   -6.7718    4.9968 H         1 <0>         0.1499
     44 H12        -0.4220   -4.1356    5.3011 H         1 <0>         0.1146
     45 H13        -4.3170   -4.0451    5.0614 H         1 <0>         0.1649
     46 H14        -1.7485   -6.5009    7.4397 H         1 <0>         0.4411
     47 H15        -3.9027   -7.0765    5.8234 H         1 <0>         0.0791
     48 H16        -3.9353   -7.0014    7.6015 H         1 <0>         0.0841
     49 H17        -5.1107   -6.0631    6.6494 H         1 <0>         0.1084
     50 H18        -4.5699   -4.0523    7.7191 H         1 <0>         0.1091
     51 H19        -3.3356   -4.8018    8.7599 H         1 <0>         0.0840
     52 H20        -2.9187   -3.3889    7.7608 H         1 <0>         0.0812
     53 H21        -2.7040   -4.2228    2.4012 H         1 <0>         0.0856
     54 H22        -3.8074   -3.1977    3.3498 H         1 <0>         0.0783
     55 H23        -2.1169   -2.6971    3.1053 H         1 <0>         0.0854
     56 H24         0.5199   -6.2505   -1.1608 H         1 <0>         0.1418
     57 H25         1.9940   -8.2056   -1.3852 H         1 <0>         0.1521
     58 H26         2.1316  -10.0559    4.5702 H         1 <0>         0.1040
     59 H27         0.6460   -9.1755    4.1391 H         1 <0>         0.0470
     60 H28         1.3016  -10.4087    3.0356 H         1 <0>         0.0589
     61 H29         3.9316   -9.2868    0.6693 H         1 <0>         0.3995
     62 H30        -1.2138   -4.9837    7.1532 H         1 <0>         0.4177
@<TRIPOS>BOND
     1    1    2 1
     2    1   33 1
     3    1   34 1
     4    1   35 1
     5    2    7 ar
     6    2    3 ar
     7    3    4 ar
     8    3   36 1
     9    4    5 ar
    10    4   37 1
    11    5    6 ar
    12    5   38 1
    13    6    7 ar
    14    6    8 1
    15    7   39 1
    16    8    9 2
    17    8   40 1
    18    9   32 1
    19    9   10 1
    20   10   15 1
    21   10   11 2
    22   11   12 1
    23   11   23 1
    24   12   13 2
    25   12   41 1
    26   13   14 1
    27   13   42 1
    28   14   19 1
    29   14   15 1
    30   14   43 1
    31   15   16 1
    32   15   44 1
    33   16   17 2
    34   16   22 1
    35   17   18 1
    36   17   45 1
    37   18   19 1
    38   18   20 1
    39   18   21 1
    40   19   46 1
    41   19   62 1
    42   20   47 1
    43   20   48 1
    44   20   49 1
    45   21   50 1
    46   21   51 1
    47   21   52 1
    48   22   53 1
    49   22   54 1
    50   22   55 1
    51   23   28 ar
    52   23   24 ar
    53   24   25 ar
    54   24   32 1
    55   25   26 ar
    56   25   56 1
    57   26   27 ar
    58   26   57 1
    59   27   28 ar
    60   27   31 1
    61   28   29 1
    62   29   30 1
    63   30   58 1
    64   30   59 1
    65   30   60 1
    66   31   61 1
@<TRIPOS>MOLECULE
CHEMBL232760__2
   61    65     0     0     0
SMALL
USER_CHARGES

@<TRIPOS>ATOM
      1 C1          1.1867   -2.5459   -2.5021 C.3       1 <0>        -0.1147
      2 C2          1.2826   -1.8617   -1.1628 C.ar      1 <0>        -0.0864
      3 C3          1.4828   -0.4931   -1.0996 C.ar      1 <0>        -0.1264
      4 C4          1.5724    0.1454    0.1252 C.ar      1 <0>        -0.1156
      5 C5          1.4628   -0.5778    1.2937 C.ar      1 <0>        -0.1212
      6 C6          1.2603   -1.9621    1.2390 C.ar      1 <0>        -0.0365
      7 C7          1.1652   -2.5992   -0.0045 C.ar      1 <0>        -0.1185
      8 C8          1.1424   -2.7406    2.4784 C.2       1 <0>        -0.1705
      9 C9          1.1194   -4.1007    2.4282 C.2       1 <0>         0.1165
     10 C10         0.7902   -4.8209    3.5946 C.2       1 <0>        -0.1112
     11 C11         0.7826   -6.1879    3.5574 C.2       1 <0>         0.0067
     12 C12         0.4052   -6.9527    4.7513 C.2       1 <0>        -0.1538
     13 C13        -0.2111   -6.3427    5.7580 C.2       1 <0>        -0.1116
     14 C14        -0.5609   -4.8835    5.6859 C.3       1 <0>         0.1172
     15 C15         0.4699   -4.1056    4.8780 C.3       1 <0>        -0.0292
     16 C16         1.7240   -3.9051    5.6788 C.2       1 <0>        -0.1094
     17 C17         1.7872   -4.1104    6.9594 C.2       1 <0>        -0.1765
     18 C18         0.6136   -4.5757    7.7726 C.3       1 <0>         0.1389
     19 N1         -0.6368   -4.3257    7.0441 N.3       1 <0>        -0.6592
     20 C19         0.5860   -3.8193    9.1023 C.3       1 <0>        -0.1393
     21 C20         0.7494   -6.0746    8.0477 C.3       1 <0>        -0.1473
     22 C21         2.9675   -3.4445    4.9629 C.3       1 <0>        -0.1252
     23 C22         1.1555   -6.8569    2.2978 C.ar      1 <0>        -0.1265
     24 C23         1.4636   -6.0655    1.1804 C.ar      1 <0>         0.1270
     25 C24         1.8179   -6.6791   -0.0111 C.ar      1 <0>        -0.1279
     26 C25         1.8643   -8.0583   -0.0979 C.ar      1 <0>        -0.0880
     27 C26         1.5583   -8.8453    1.0019 C.ar      1 <0>         0.0669
     28 C27         1.2013   -8.2491    2.2056 C.ar      1 <0>         0.1247
     29 O1          0.8990   -9.0164    3.2859 O.3       1 <0>        -0.3234
     30 C28        -0.4682   -9.3995    3.4475 C.3       1 <0>         0.0319
     31 O2          1.6068  -10.2015    0.9026 O.3       1 <0>        -0.4863
     32 O3          1.4070   -4.7160    1.2623 O.3       1 <0>        -0.2104
     33 H1          0.1474   -2.5578   -2.8305 H         1 <0>         0.0694
     34 H2          1.7917   -2.0057   -3.2303 H         1 <0>         0.0660
     35 H3          1.5517   -3.5693   -2.4143 H         1 <0>         0.0646
     36 H4          1.5699    0.0794   -2.0112 H         1 <0>         0.1189
     37 H5          1.7289    1.2133    0.1656 H         1 <0>         0.1210
     38 H6          1.5333   -0.0781    2.2486 H         1 <0>         0.1201
     39 H7          1.0044   -3.6659   -0.0556 H         1 <0>         0.1431
     40 H8          1.0740   -2.2341    3.4298 H         1 <0>         0.1463
     41 H9          0.6274   -8.0079    4.8115 H         1 <0>         0.1543
     42 H10        -0.4656   -6.9060    6.6437 H         1 <0>         0.1435
     43 H11        -1.5322   -4.7750    5.2034 H         1 <0>         0.0997
     44 H12         0.0605   -3.1240    4.6396 H         1 <0>         0.0969
     45 H13         2.7272   -3.9390    7.4629 H         1 <0>         0.1120
     46 H14        -0.8499   -3.3398    7.0188 H         1 <0>         0.3474
     47 H15         0.4952   -2.7501    8.9102 H         1 <0>         0.0552
     48 H16        -0.2654   -4.1556    9.6940 H         1 <0>         0.0677
     49 H17         1.5083   -4.0131    9.6498 H         1 <0>         0.0639
     50 H18         1.4131   -6.2293    8.8984 H         1 <0>         0.0586
     51 H19        -0.2318   -6.4933    8.2716 H         1 <0>         0.0722
     52 H20         1.1635   -6.5692    7.1691 H         1 <0>         0.0700
     53 H21         3.0026   -2.3551    4.9599 H         1 <0>         0.0682
     54 H22         3.8471   -3.8350    5.4748 H         1 <0>         0.0624
     55 H23         2.9523   -3.8104    3.9363 H         1 <0>         0.0673
     56 H24         2.0584   -6.0774   -0.8752 H         1 <0>         0.1465
     57 H25         2.1415   -8.5267   -1.0306 H         1 <0>         0.1486
     58 H26        -1.0871   -8.5070    3.5398 H         1 <0>         0.0527
     59 H27        -0.7890   -9.9759    2.5798 H         1 <0>         0.0546
     60 H28        -0.5713  -10.0077    4.3461 H         1 <0>         0.1003
     61 H29         2.4695  -10.5811    1.1188 H         1 <0>         0.3938
@<TRIPOS>BOND
     1    1    2 1
     2    1   33 1
     3    1   34 1
     4    1   35 1
     5    2    7 ar
     6    2    3 ar
     7    3    4 ar
     8    3   36 1
     9    4    5 ar
    10    4   37 1
    11    5    6 ar
    12    5   38 1
    13    6    7 ar
    14    6    8 1
    15    7   39 1
    16    8    9 2
    17    8   40 1
    18    9   32 1
    19    9   10 1
    20   10   15 1
    21   10   11 2
    22   11   12 1
    23   11   23 1
    24   12   13 2
    25   12   41 1
    26   13   14 1
    27   13   42 1
    28   14   19 1
    29   14   15 1
    30   14   43 1
    31   15   16 1
    32   15   44 1
    33   16   17 2
    34   16   22 1
    35   17   18 1
    36   17   45 1
    37   18   19 1
    38   18   20 1
    39   18   21 1
    40   19   46 1
    41   20   47 1
    42   20   48 1
    43   20   49 1
    44   21   50 1
    45   21   51 1
    46   21   52 1
    47   22   53 1
    48   22   54 1
    49   22   55 1
    50   23   28 ar
    51   23   24 ar
    52   24   25 ar
    53   24   32 1
    54   25   26 ar
    55   25   56 1
    56   26   27 ar
    57   26   57 1
    58   27   28 ar
    59   27   31 1
    60   28   29 1
    61   29   30 1
    62   30   58 1
    63   30   59 1
    64   30   60 1
    65   31   61 1
@<TRIPOS>MOLECULE
CHEMBL232760__3
   62    66     0     0     0
SMALL
USER_CHARGES

@<TRIPOS>ATOM
      1 C1          1.2660   -2.6051   -2.5140 C.3       1 <0>        -0.1183
      2 C2          1.3300   -1.9140   -1.1763 C.ar      1 <0>        -0.0849
      3 C3          1.5421   -0.5471   -1.1149 C.ar      1 <0>        -0.1130
      4 C4          1.6026    0.0977    0.1084 C.ar      1 <0>        -0.1157
      5 C5          1.4519   -0.6176    1.2772 C.ar      1 <0>        -0.1144
      6 C6          1.2371   -2.0001    1.2244 C.ar      1 <0>        -0.0567
      7 C7          1.1717   -2.6435   -0.0178 C.ar      1 <0>        -0.1110
      8 C8          1.0755   -2.7701    2.4641 C.2       1 <0>        -0.1411
      9 C9          1.0401   -4.1302    2.4208 C.2       1 <0>         0.0948
     10 C10         0.7220   -4.8420    3.5956 C.2       1 <0>        -0.0982
     11 C11         0.6990   -6.2089    3.5643 C.2       1 <0>        -0.0029
     12 C12         0.3332   -6.9647    4.7676 C.2       1 <0>        -0.0670
     13 C13        -0.2601   -6.3439    5.7815 C.2       1 <0>        -0.2147
     14 C14        -0.5957   -4.8815    5.7079 C.3       1 <0>         0.0770
     15 C15         0.4305   -4.1178    4.8810 C.3       1 <0>        -0.0219
     16 C16         1.7005   -3.9348    5.6624 C.2       1 <0>        -0.0810
     17 C17         1.7764   -4.1523    6.9409 C.2       1 <0>        -0.1799
     18 C18         0.6054   -4.6112    7.7612 C.3       1 <0>         0.1026
     19 N1         -0.6513   -4.3162    7.0631 N.4       1 <0>        -0.4968
     20 C19         0.6174   -3.8887    9.1099 C.3       1 <0>        -0.1725
     21 C20         0.7120   -6.1191    7.9973 C.3       1 <0>        -0.1835
     22 C21         2.9381   -3.4803    4.9325 C.3       1 <0>        -0.1360
     23 C22         1.0443   -6.8871    2.3017 C.ar      1 <0>        -0.1389
     24 C23         1.3443   -6.1036    1.1766 C.ar      1 <0>         0.1323
     25 C24         1.6728   -6.7260   -0.0179 C.ar      1 <0>        -0.1237
     26 C25         1.7014   -8.1060   -0.0997 C.ar      1 <0>        -0.0765
     27 C26         1.4029   -8.8851    1.0077 C.ar      1 <0>         0.0749
     28 C27         1.0720   -8.2801    2.2143 C.ar      1 <0>         0.1241
     29 O1          0.7772   -9.0397    3.3022 O.3       1 <0>        -0.3259
     30 C28        -0.5918   -9.4056    3.4863 C.3       1 <0>         0.0275
     31 O2          1.4338  -10.2421    0.9131 O.3       1 <0>        -0.4842
     32 O3          1.3050   -4.7533    1.2539 O.3       1 <0>        -0.2035
     33 H1          0.2366   -2.6085   -2.8723 H         1 <0>         0.0724
     34 H2          1.8973   -2.0752   -3.2273 H         1 <0>         0.0697
     35 H3          1.6179   -3.6315   -2.4099 H         1 <0>         0.0658
     36 H4          1.6613    0.0192   -2.0268 H         1 <0>         0.1240
     37 H5          1.7687    1.1641    0.1474 H         1 <0>         0.1253
     38 H6          1.4998   -0.1131    2.2309 H         1 <0>         0.1208
     39 H7          1.0016   -3.7089   -0.0676 H         1 <0>         0.1451
     40 H8          0.9848   -2.2574    3.4103 H         1 <0>         0.1443
     41 H9          0.5450   -8.0220    4.8288 H         1 <0>         0.1735
     42 H10        -0.5057   -6.9004    6.6740 H         1 <0>         0.1636
     43 H11        -1.5718   -4.7660    5.2365 H         1 <0>         0.1520
     44 H12         0.0300   -3.1316    4.6463 H         1 <0>         0.1267
     45 H13         2.7238   -3.9966    7.4356 H         1 <0>         0.1532
     46 H14        -0.7792   -3.3170    7.0064 H         1 <0>         0.4309
     47 H15         0.5490   -2.8132    8.9465 H         1 <0>         0.0829
     48 H16        -0.2319   -4.2202    9.7072 H         1 <0>         0.0846
     49 H17         1.5437   -4.1179    9.6366 H         1 <0>         0.1081
     50 H18         1.3721   -6.3086    8.8436 H         1 <0>         0.1019
     51 H19        -0.2772   -6.5243    8.2102 H         1 <0>         0.0836
     52 H20         1.1170   -6.5986    7.1061 H         1 <0>         0.1036
     53 H21         2.9838   -2.3912    4.9379 H         1 <0>         0.0855
     54 H22         3.8211   -3.8834    5.4286 H         1 <0>         0.0787
     55 H23         2.9047   -3.8375    3.9033 H         1 <0>         0.0797
     56 H24         1.9070   -6.1307   -0.8880 H         1 <0>         0.1517
     57 H25         1.9583   -8.5813   -1.0348 H         1 <0>         0.1549
     58 H26        -0.6884  -10.0092    4.3888 H         1 <0>         0.1038
     59 H27        -1.1985   -8.5054    3.5846 H         1 <0>         0.0481
     60 H28        -0.9328   -9.9815    2.6259 H         1 <0>         0.0620
     61 H29         2.2952  -10.6311    1.1178 H         1 <0>         0.3990
     62 H30        -1.4219   -4.7272    7.5683 H         1 <0>         0.4334
@<TRIPOS>BOND
     1    1    2 1
     2    1   33 1
     3    1   34 1
     4    1   35 1
     5    2    7 ar
     6    2    3 ar
     7    3    4 ar
     8    3   36 1
     9    4    5 ar
    10    4   37 1
    11    5    6 ar
    12    5   38 1
    13    6    7 ar
    14    6    8 1
    15    7   39 1
    16    8    9 2
    17    8   40 1
    18    9   32 1
    19    9   10 1
    20   10   15 1
    21   10   11 2
    22   11   12 1
    23   11   23 1
    24   12   13 2
    25   12   41 1
    26   13   14 1
    27   13   42 1
    28   14   19 1
    29   14   15 1
    30   14   43 1
    31   15   16 1
    32   15   44 1
    33   16   17 2
    34   16   22 1
    35   17   18 1
    36   17   45 1
    37   18   19 1
    38   18   20 1
    39   18   21 1
    40   19   46 1
    41   19   62 1
    42   20   47 1
    43   20   48 1
    44   20   49 1
    45   21   50 1
    46   21   51 1
    47   21   52 1
    48   22   53 1
    49   22   54 1
    50   22   55 1
    51   23   28 ar
    52   23   24 ar
    53   24   25 ar
    54   24   32 1
    55   25   26 ar
    56   25   56 1
    57   26   27 ar
    58   26   57 1
    59   27   28 ar
    60   27   31 1
    61   28   29 1
    62   29   30 1
    63   30   58 1
    64   30   59 1
    65   30   60 1
    66   31   61 1
@<TRIPOS>MOLECULE
CHEMBL232760__4
   61    65     0     0     0
SMALL
USER_CHARGES

@<TRIPOS>ATOM
      1 C1         -1.4288   -2.9344   -2.6930 C.3       1 <0>        -0.1147
      2 C2         -0.9967   -2.2058   -1.4467 C.ar      1 <0>        -0.0872
      3 C3         -0.7560   -0.8430   -1.4922 C.ar      1 <0>        -0.1254
      4 C4         -0.3587   -0.1638   -0.3534 C.ar      1 <0>        -0.1161
      5 C5         -0.1993   -0.8405    0.8371 C.ar      1 <0>        -0.1193
      6 C6         -0.4405   -2.2185    0.8921 C.ar      1 <0>        -0.0382
      7 C7         -0.8476   -2.8967   -0.2636 C.ar      1 <0>        -0.1182
      8 C8         -0.2733   -2.9475    2.1557 C.2       1 <0>        -0.1646
      9 C9         -0.3372   -4.3071    2.1707 C.2       1 <0>         0.1137
     10 C10        -0.3805   -4.9745    3.4119 C.2       1 <0>        -0.1054
     11 C11        -0.4634   -6.3392    3.4354 C.2       1 <0>        -0.0029
     12 C12        -0.4709   -7.0523    4.7177 C.2       1 <0>        -0.1363
     13 C13        -0.0986   -6.4208    5.8259 C.2       1 <0>        -0.1637
     14 C14         0.3640   -4.9920    5.7884 C.3       1 <0>         0.1184
     15 C15        -0.3583   -4.2040    4.7030 C.3       1 <0>         0.0132
     16 C16        -1.7609   -3.8822    5.1312 C.2       1 <0>        -0.0996
     17 C17        -2.1737   -4.0061    6.3560 C.2       1 <0>        -0.1445
     18 C18        -1.2926   -4.4900    7.4718 C.3       1 <0>         0.1419
     19 N1          0.1205   -4.3593    7.0931 N.3       1 <0>        -0.6638
     20 C19        -1.5606   -3.6575    8.7272 C.3       1 <0>        -0.1344
     21 C20        -1.6050   -5.9589    7.7642 C.3       1 <0>        -0.1855
     22 C21        -2.7349   -3.3921    4.0909 C.3       1 <0>        -0.1293
     23 C22        -0.5391   -7.0592    2.1511 C.ar      1 <0>        -0.1221
     24 C23        -0.4832   -6.3193    0.9599 C.ar      1 <0>         0.1280
     25 C24        -0.5551   -6.9810   -0.2561 C.ar      1 <0>        -0.1276
     26 C25        -0.6785   -8.3575   -0.2942 C.ar      1 <0>        -0.0876
     27 C26        -0.7306   -9.0942    0.8795 C.ar      1 <0>         0.0628
     28 C27        -0.6609   -8.4492    2.1086 C.ar      1 <0>         0.1228
     29 O1         -0.7104   -9.1671    3.2616 O.3       1 <0>        -0.3182
     30 C28         0.5198   -9.7179    3.7362 C.3       1 <0>         0.0303
     31 O2         -0.8504  -10.4486    0.8278 O.3       1 <0>        -0.4810
     32 O3         -0.3626   -4.9726    0.9972 O.3       1 <0>        -0.2095
     33 H1         -2.5166   -2.9244   -2.7610 H         1 <0>         0.0693
     34 H2         -1.0055   -2.4408   -3.5677 H         1 <0>         0.0658
     35 H3         -1.0769   -3.9652   -2.6517 H         1 <0>         0.0644
     36 H4         -0.8787   -0.3069   -2.4217 H         1 <0>         0.1186
     37 H5         -0.1728    0.8991   -0.3977 H         1 <0>         0.1212
     38 H6          0.1111   -0.3091    1.7247 H         1 <0>         0.1216
     39 H7         -1.0403   -3.9588   -0.2287 H         1 <0>         0.1435
     40 H8         -0.0996   -2.4049    3.0732 H         1 <0>         0.1498
     41 H9         -0.7784   -8.0867    4.7607 H         1 <0>         0.1504
     42 H10        -0.1286   -6.9440    6.7702 H         1 <0>         0.1349
     43 H11         1.4334   -4.9707    5.5782 H         1 <0>         0.0970
     44 H12         0.1699   -3.2643    4.5415 H         1 <0>         0.1029
     45 H13        -3.1978   -3.7491    6.5829 H         1 <0>         0.1134
     46 H14         0.7227   -4.7497    7.8023 H         1 <0>         0.3488
     47 H15        -2.6062   -3.7630    9.0167 H         1 <0>         0.0615
     48 H16        -0.9219   -4.0073    9.5383 H         1 <0>         0.0568
     49 H17        -1.3447   -2.6092    8.5210 H         1 <0>         0.0652
     50 H18        -1.8283   -6.4757    6.8309 H         1 <0>         0.0743
     51 H19        -0.7430   -6.4258    8.2407 H         1 <0>         0.0594
     52 H20        -2.4662   -6.0218    8.4294 H         1 <0>         0.0613
     53 H21        -3.2511   -4.2433    3.6469 H         1 <0>         0.0624
     54 H22        -3.4630   -2.7293    4.5586 H         1 <0>         0.0631
     55 H23        -2.1952   -2.8493    3.3149 H         1 <0>         0.0748
     56 H24        -0.5150   -6.4189   -1.1774 H         1 <0>         0.1470
     57 H25        -0.7345   -8.8637   -1.2466 H         1 <0>         0.1485
     58 H26         0.9276  -10.3959    2.9864 H         1 <0>         0.0478
     59 H27         1.2304   -8.9127    3.9229 H         1 <0>         0.0525
     60 H28         0.3398  -10.2654    4.6614 H         1 <0>         0.1009
     61 H29        -0.0051  -10.9176    0.8033 H         1 <0>         0.3866
@<TRIPOS>BOND
     1    1    2 1
     2    1   33 1
     3    1   34 1
     4    1   35 1
     5    2    7 ar
     6    2    3 ar
     7    3    4 ar
     8    3   36 1
     9    4    5 ar
    10    4   37 1
    11    5    6 ar
    12    5   38 1
    13    6    7 ar
    14    6    8 1
    15    7   39 1
    16    8    9 2
    17    8   40 1
    18    9   32 1
    19    9   10 1
    20   10   15 1
    21   10   11 2
    22   11   12 1
    23   11   23 1
    24   12   13 2
    25   12   41 1
    26   13   14 1
    27   13   42 1
    28   14   19 1
    29   14   15 1
    30   14   43 1
    31   15   16 1
    32   15   44 1
    33   16   17 2
    34   16   22 1
    35   17   18 1
    36   17   45 1
    37   18   19 1
    38   18   20 1
    39   18   21 1
    40   19   46 1
    41   20   47 1
    42   20   48 1
    43   20   49 1
    44   21   50 1
    45   21   51 1
    46   21   52 1
    47   22   53 1
    48   22   54 1
    49   22   55 1
    50   23   28 ar
    51   23   24 ar
    52   24   25 ar
    53   24   32 1
    54   25   26 ar
    55   25   56 1
    56   26   27 ar
    57   26   57 1
    58   27   28 ar
    59   27   31 1
    60   28   29 1
    61   29   30 1
    62   30   58 1
    63   30   59 1
    64   30   60 1
    65   31   61 1
@<TRIPOS>MOLECULE
CHEMBL232760__5
   62    66     0     0     0
SMALL
USER_CHARGES

@<TRIPOS>ATOM
      1 C1         -1.0485   -2.2394   -2.0175 C.3       1 <0>        -0.1184
      2 C2         -0.5980   -1.6029   -0.7279 C.ar      1 <0>        -0.0847
      3 C3         -0.3085   -0.2494   -0.6903 C.ar      1 <0>        -0.1127
      4 C4          0.1061    0.3453    0.4889 C.ar      1 <0>        -0.1156
      5 C5          0.2342   -0.4070    1.6370 C.ar      1 <0>        -0.1143
      6 C6         -0.0564   -1.7762    1.6079 C.ar      1 <0>        -0.0566
      7 C7         -0.4806   -2.3686    0.4120 C.ar      1 <0>        -0.1103
      8 C8          0.0772   -2.5854    2.8259 C.2       1 <0>        -0.1429
      9 C9         -0.0304   -3.9407    2.7579 C.2       1 <0>         0.0979
     10 C10        -0.1232   -4.6786    3.9558 C.2       1 <0>        -0.0968
     11 C11        -0.2465   -6.0391    3.8958 C.2       1 <0>        -0.0049
     12 C12        -0.3072   -6.8263    5.1325 C.2       1 <0>        -0.0649
     13 C13         0.0541   -6.2728    6.2853 C.2       1 <0>        -0.2148
     14 C14         0.5577   -4.8591    6.3444 C.3       1 <0>         0.0769
     15 C15        -0.1095   -3.9860    5.2905 C.3       1 <0>        -0.0215
     16 C16        -1.5128   -3.6453    5.7034 C.2       1 <0>        -0.0786
     17 C17        -1.9585   -3.8424    6.9077 C.2       1 <0>        -0.1816
     18 C18        -1.1171   -4.4336    8.0020 C.3       1 <0>         0.1024
     19 N1          0.3068   -4.2968    7.6783 N.4       1 <0>        -0.4963
     20 C19        -1.4102   -3.7061    9.3156 C.3       1 <0>        -0.1724
     21 C20        -1.4606   -5.9162    8.1603 C.3       1 <0>        -0.1822
     22 C21        -2.4427   -3.0496    4.6780 C.3       1 <0>        -0.1381
     23 C22        -0.3117   -6.6793    2.5693 C.ar      1 <0>        -0.1365
     24 C23        -0.2074   -5.8722    1.4261 C.ar      1 <0>         0.1338
     25 C24        -0.2686   -6.4585    0.1713 C.ar      1 <0>        -0.1238
     26 C25        -0.4292   -7.8262    0.0482 C.ar      1 <0>        -0.0754
     27 C26        -0.5300   -8.6289    1.1744 C.ar      1 <0>         0.0715
     28 C27        -0.4712   -8.0602    2.4410 C.ar      1 <0>         0.1241
     29 O1         -0.5678   -8.8434    3.5477 O.3       1 <0>        -0.3212
     30 C28         0.6402   -9.4328    4.0328 C.3       1 <0>         0.0252
     31 O2         -0.6871   -9.9738    1.0392 O.3       1 <0>        -0.4784
     32 O3         -0.0505   -4.5339    1.5462 O.3       1 <0>        -0.2036
     33 H1         -2.1349   -2.1860   -2.0888 H         1 <0>         0.0726
     34 H2         -0.6026   -1.7096   -2.8593 H         1 <0>         0.0698
     35 H3         -0.7339   -3.2828   -2.0370 H         1 <0>         0.0658
     36 H4         -0.4064    0.3456   -1.5862 H         1 <0>         0.1240
     37 H5          0.3302    1.4016    0.5094 H         1 <0>         0.1253
     38 H6          0.5582    0.0585    2.5561 H         1 <0>         0.1209
     39 H7         -0.7114   -3.4233    0.3820 H         1 <0>         0.1430
     40 H8          0.2610   -2.1053    3.7757 H         1 <0>         0.1444
     41 H9         -0.6448   -7.8518    5.1061 H         1 <0>         0.1730
     42 H10        -0.0160   -6.8496    7.1957 H         1 <0>         0.1630
     43 H11         1.6317   -4.8592    6.1582 H         1 <0>         0.1515
     44 H12         0.4518   -3.0562    5.1978 H         1 <0>         0.1259
     45 H13        -2.9789   -3.5687    7.1318 H         1 <0>         0.1531
     46 H14         0.8570   -4.7942    8.3624 H         1 <0>         0.4333
     47 H15        -2.4652   -3.8186    9.5657 H         1 <0>         0.1081
     48 H16        -0.8005   -4.1336   10.1116 H         1 <0>         0.0844
     49 H17        -1.1738   -2.6478    9.2054 H         1 <0>         0.0830
     50 H18        -1.6823   -6.3442    7.1827 H         1 <0>         0.1022
     51 H19        -0.6134   -6.4402    8.6028 H         1 <0>         0.0835
     52 H20        -2.3309   -6.0203    8.8083 H         1 <0>         0.1018
     53 H21        -2.9748   -3.8489    4.1621 H         1 <0>         0.0808
     54 H22        -3.1605   -2.3965    5.1743 H         1 <0>         0.0789
     55 H23        -1.8653   -2.4724    3.9558 H         1 <0>         0.0859
     56 H24        -0.1910   -5.8443   -0.7137 H         1 <0>         0.1521
     57 H25        -0.4768   -8.2732   -0.9337 H         1 <0>         0.1550
     58 H26         0.4227  -10.0313    4.9175 H         1 <0>         0.1054
     59 H27         1.0696  -10.0700    3.2597 H         1 <0>         0.0548
     60 H28         1.3497   -8.6467    4.2914 H         1 <0>         0.0501
     61 H29         0.1449  -10.4655    1.0052 H         1 <0>         0.3919
     62 H30         0.5615   -3.3205    7.6857 H         1 <0>         0.4308
@<TRIPOS>BOND
     1    1    2 1
     2    1   33 1
     3    1   34 1
     4    1   35 1
     5    2    7 ar
     6    2    3 ar
     7    3    4 ar
     8    3   36 1
     9    4    5 ar
    10    4   37 1
    11    5    6 ar
    12    5   38 1
    13    6    7 ar
    14    6    8 1
    15    7   39 1
    16    8    9 2
    17    8   40 1
    18    9   32 1
    19    9   10 1
    20   10   15 1
    21   10   11 2
    22   11   12 1
    23   11   23 1
    24   12   13 2
    25   12   41 1
    26   13   14 1
    27   13   42 1
    28   14   19 1
    29   14   15 1
    30   14   43 1
    31   15   16 1
    32   15   44 1
    33   16   17 2
    34   16   22 1
    35   17   18 1
    36   17   45 1
    37   18   19 1
    38   18   20 1
    39   18   21 1
    40   19   46 1
    41   19   62 1
    42   20   47 1
    43   20   48 1
    44   20   49 1
    45   21   50 1
    46   21   51 1
    47   21   52 1
    48   22   53 1
    49   22   54 1
    50   22   55 1
    51   23   28 ar
    52   23   24 ar
    53   24   25 ar
    54   24   32 1
    55   25   26 ar
    56   25   56 1
    57   26   27 ar
    58   26   57 1
    59   27   28 ar
    60   27   31 1
    61   28   29 1
    62   29   30 1
    63   30   58 1
    64   30   59 1
    65   30   60 1
    66   31   61 1
@<TRIPOS>MOLECULE
CHEMBL232760__6
   61    65     0     0     0
SMALL
USER_CHARGES

@<TRIPOS>ATOM
      1 C1         -1.6071   -2.8310   -2.3537 C.3       1 <0>        -0.1153
      2 C2         -1.2015   -2.2039   -1.0447 C.ar      1 <0>        -0.0898
      3 C3         -0.9026   -0.8531   -0.9897 C.ar      1 <0>        -0.1183
      4 C4         -0.5290   -0.2669    0.2073 C.ar      1 <0>        -0.1187
      5 C5         -0.4515   -1.0252    1.3561 C.ar      1 <0>        -0.1130
      6 C6         -0.7520   -2.3918    1.3094 C.ar      1 <0>        -0.0492
      7 C7         -1.1346   -2.9755    0.0953 C.ar      1 <0>        -0.0977
      8 C8         -0.6723   -3.2073    2.5279 C.2       1 <0>        -0.1127
      9 C9         -0.5533   -4.5501    2.4356 C.2       1 <0>         0.0947
     10 C10        -0.5857   -5.4104    3.5310 C.2       1 <0>        -0.0969
     11 C11         0.2820   -6.4994    3.4875 C.2       1 <0>        -0.0188
     12 C12         0.4167   -7.3518    4.6750 C.2       1 <0>        -0.1164
     13 C13         0.1159   -6.8524    5.8847 C.2       1 <0>        -0.1233
     14 C14        -0.4103   -5.4392    5.9362 C.3       1 <0>         0.1223
     15 C15        -1.4093   -5.3177    4.7742 C.3       1 <0>        -0.0317
     16 C16        -2.3151   -4.1566    4.9290 C.2       1 <0>        -0.1029
     17 C17        -2.3213   -3.4124    6.0042 C.2       1 <0>        -0.1802
     18 C18        -1.4838   -3.6992    7.2137 C.3       1 <0>         0.1450
     19 N1         -1.0313   -5.0974    7.2015 N.3       1 <0>        -0.6636
     20 C19        -2.3357   -3.4684    8.4668 C.3       1 <0>        -0.1404
     21 C20        -0.2867   -2.7531    7.2499 C.3       1 <0>        -0.1334
     22 C21        -3.3617   -3.8559    3.8781 C.3       1 <0>        -0.1214
     23 C22         1.0013   -6.7532    2.2292 C.ar      1 <0>        -0.1169
     24 C23         0.6251   -6.0203    1.0872 C.ar      1 <0>         0.1254
     25 C24         1.2559   -6.2436   -0.1225 C.ar      1 <0>        -0.1279
     26 C25         2.2672   -7.1824   -0.2150 C.ar      1 <0>        -0.0901
     27 C26         2.6568   -7.9013    0.9034 C.ar      1 <0>         0.0587
     28 C27         2.0313   -7.6883    2.1287 C.ar      1 <0>         0.1237
     29 O1          2.4530   -8.3912    3.2128 O.3       1 <0>        -0.3205
     30 C28         3.5810   -7.8750    3.9221 C.3       1 <0>         0.0367
     31 O2          3.6551   -8.8217    0.8064 O.3       1 <0>        -0.4813
     32 O3         -0.3503   -5.0794    1.1901 O.3       1 <0>        -0.2302
     33 H1         -2.6894   -2.7682   -2.4667 H         1 <0>         0.0701
     34 H2         -1.1247   -2.3013   -3.1752 H         1 <0>         0.0662
     35 H3         -1.3006   -3.8769   -2.3659 H         1 <0>         0.0659
     36 H4         -0.9609   -0.2533   -1.8860 H         1 <0>         0.1202
     37 H5         -0.2971    0.7873    0.2414 H         1 <0>         0.1223
     38 H6         -0.1595   -0.5664    2.2891 H         1 <0>         0.1213
     39 H7         -1.3727   -4.0280    0.0516 H         1 <0>         0.1385
     40 H8         -0.7086   -2.7338    3.4979 H         1 <0>         0.1419
     41 H9          0.7318   -8.3806    4.5892 H         1 <0>         0.1394
     42 H10         0.2425   -7.4290    6.7819 H         1 <0>         0.1368
     43 H11         0.4304   -4.7740    5.7327 H         1 <0>         0.0925
     44 H12        -2.0354   -6.2301    4.8080 H         1 <0>         0.0894
     45 H13        -2.9640   -2.5478    6.0198 H         1 <0>         0.1134
     46 H14        -1.7845   -5.7260    7.4366 H         1 <0>         0.3485
     47 H15        -3.1985   -4.1343    8.4473 H         1 <0>         0.0557
     48 H16        -1.7384   -3.6736    9.3552 H         1 <0>         0.0682
     49 H17        -2.6762   -2.4332    8.4891 H         1 <0>         0.0649
     50 H18        -0.6393   -1.7226    7.2919 H         1 <0>         0.0622
     51 H19         0.3183   -2.9663    8.1312 H         1 <0>         0.0669
     52 H20         0.3156   -2.8949    6.3526 H         1 <0>         0.0522
     53 H21        -4.2866   -4.3760    4.1271 H         1 <0>         0.0662
     54 H22        -3.5461   -2.7821    3.8458 H         1 <0>         0.0669
     55 H23        -3.0062   -4.1929    2.9044 H         1 <0>         0.0651
     56 H24         0.9606   -5.6857   -0.9992 H         1 <0>         0.1448
     57 H25         2.7543   -7.3544   -1.1627 H         1 <0>         0.1463
     58 H26         4.4625   -7.9161    3.2822 H         1 <0>         0.0452
     59 H27         3.3880   -6.8412    4.2087 H         1 <0>         0.0482
     60 H28         3.7530   -8.4739    4.8164 H         1 <0>         0.0999
     61 H29         4.5378   -8.4635    0.9726 H         1 <0>         0.3852
@<TRIPOS>BOND
     1    1    2 1
     2    1   33 1
     3    1   34 1
     4    1   35 1
     5    2    7 ar
     6    2    3 ar
     7    3    4 ar
     8    3   36 1
     9    4    5 ar
    10    4   37 1
    11    5    6 ar
    12    5   38 1
    13    6    7 ar
    14    6    8 1
    15    7   39 1
    16    8    9 2
    17    8   40 1
    18    9   32 1
    19    9   10 1
    20   10   15 1
    21   10   11 2
    22   11   12 1
    23   11   23 1
    24   12   13 2
    25   12   41 1
    26   13   14 1
    27   13   42 1
    28   14   19 1
    29   14   15 1
    30   14   43 1
    31   15   16 1
    32   15   44 1
    33   16   17 2
    34   16   22 1
    35   17   18 1
    36   17   45 1
    37   18   19 1
    38   18   20 1
    39   18   21 1
    40   19   46 1
    41   20   47 1
    42   20   48 1
    43   20   49 1
    44   21   50 1
    45   21   51 1
    46   21   52 1
    47   22   53 1
    48   22   54 1
    49   22   55 1
    50   23   28 ar
    51   23   24 ar
    52   24   25 ar
    53   24   32 1
    54   25   26 ar
    55   25   56 1
    56   26   27 ar
    57   26   57 1
    58   27   28 ar
    59   27   31 1
    60   28   29 1
    61   29   30 1
    62   30   58 1
    63   30   59 1
    64   30   60 1
    65   31   61 1
@<TRIPOS>MOLECULE
CHEMBL232760__7
   62    66     0     0     0
SMALL
USER_CHARGES

@<TRIPOS>ATOM
      1 C1         -1.6086   -2.8333   -2.3445 C.3       1 <0>        -0.1190
      2 C2         -1.1968   -2.2095   -1.0359 C.ar      1 <0>        -0.0878
      3 C3         -0.8958   -0.8592   -0.9792 C.ar      1 <0>        -0.1054
      4 C4         -0.5165   -0.2761    0.2174 C.ar      1 <0>        -0.1183
      5 C5         -0.4353   -1.0369    1.3642 C.ar      1 <0>        -0.1070
      6 C6         -0.7379   -2.4030    1.3160 C.ar      1 <0>        -0.0696
      7 C7         -1.1262   -2.9836    0.1022 C.ar      1 <0>        -0.0907
      8 C8         -0.6542   -3.2211    2.5324 C.2       1 <0>        -0.0826
      9 C9         -0.5366   -4.5626    2.4368 C.2       1 <0>         0.0705
     10 C10        -0.5619   -5.4294    3.5285 C.2       1 <0>        -0.0950
     11 C11         0.3287   -6.4997    3.4766 C.2       1 <0>        -0.0176
     12 C12         0.4681   -7.3725    4.6486 C.2       1 <0>        -0.0342
     13 C13         0.1395   -6.9049    5.8625 C.2       1 <0>        -0.2110
     14 C14        -0.4129   -5.5028    5.9391 C.3       1 <0>         0.0525
     15 C15        -1.3957   -5.3642    4.7656 C.3       1 <0>        -0.0071
     16 C16        -2.3029   -4.2042    4.9354 C.2       1 <0>        -0.0737
     17 C17        -2.3216   -3.4912    6.0319 C.2       1 <0>        -0.1888
     18 C18        -1.5041   -3.8166    7.2443 C.3       1 <0>         0.1010
     19 N1         -1.0614   -5.2166    7.2065 N.4       1 <0>        -0.4874
     20 C19        -2.3740   -3.6139    8.4902 C.3       1 <0>        -0.1733
     21 C20        -0.3030   -2.8792    7.3280 C.3       1 <0>        -0.1713
     22 C21        -3.3342   -3.8704    3.8796 C.3       1 <0>        -0.1327
     23 C22         1.0670   -6.7189    2.2226 C.ar      1 <0>        -0.1341
     24 C23         0.6676   -5.9987    1.0805 C.ar      1 <0>         0.1321
     25 C24         1.3086   -6.1973   -0.1274 C.ar      1 <0>        -0.1245
     26 C25         2.3571   -7.0952   -0.2160 C.ar      1 <0>        -0.0771
     27 C26         2.7747   -7.7955    0.9039 C.ar      1 <0>         0.0650
     28 C27         2.1364   -7.6086    2.1266 C.ar      1 <0>         0.1267
     29 O1          2.5846   -8.2894    3.2138 O.3       1 <0>        -0.3239
     30 C28         3.6863   -7.7224    3.9256 C.3       1 <0>         0.0338
     31 O2          3.8138   -8.6703    0.8115 O.3       1 <0>        -0.4786
     32 O3         -0.3381   -5.0902    1.1888 O.3       1 <0>        -0.2240
     33 H1         -2.6912   -2.7688   -2.4529 H         1 <0>         0.0733
     34 H2         -1.1288   -2.3026   -3.1668 H         1 <0>         0.0698
     35 H3         -1.3035   -3.8796   -2.3601 H         1 <0>         0.0673
     36 H4         -0.9570   -0.2575   -1.8740 H         1 <0>         0.1253
     37 H5         -0.2831    0.7778    0.2528 H         1 <0>         0.1265
     38 H6         -0.1388   -0.5804    2.2971 H         1 <0>         0.1215
     39 H7         -1.3659   -4.0357    0.0573 H         1 <0>         0.1395
     40 H8         -0.6867   -2.7497    3.5035 H         1 <0>         0.1394
     41 H9          0.8136   -8.3900    4.5454 H         1 <0>         0.1599
     42 H10         0.2600   -7.4997    6.7489 H         1 <0>         0.1555
     43 H11         0.4187   -4.8187    5.7708 H         1 <0>         0.1466
     44 H12        -2.0235   -6.2759    4.7758 H         1 <0>         0.1203
     45 H13        -2.9615   -2.6242    6.0645 H         1 <0>         0.1548
     46 H14        -1.8646   -5.8228    7.3277 H         1 <0>         0.4296
     47 H15        -3.2407   -4.2730    8.4394 H         1 <0>         0.0840
     48 H16        -1.7918   -3.8473    9.3817 H         1 <0>         0.0854
     49 H17        -2.7080   -2.5774    8.5354 H         1 <0>         0.1095
     50 H18        -0.6506   -1.8483    7.3951 H         1 <0>         0.1102
     51 H19         0.2865   -3.1221    8.2121 H         1 <0>         0.0855
     52 H20         0.3131   -2.9976    6.4367 H         1 <0>         0.0784
     53 H21        -4.2642   -4.3936    4.1019 H         1 <0>         0.0845
     54 H22        -3.5143   -2.7954    3.8747 H         1 <0>         0.0829
     55 H23        -2.9669   -4.1817    2.9017 H         1 <0>         0.0789
     56 H24         0.9937   -5.6531   -1.0061 H         1 <0>         0.1502
     57 H25         2.8509   -7.2506   -1.1630 H         1 <0>         0.1525
     58 H26         3.8817   -8.3114    4.8217 H         1 <0>         0.1025
     59 H27         4.5708   -7.7256    3.2886 H         1 <0>         0.0518
     60 H28         3.4467   -6.6976    4.2095 H         1 <0>         0.0453
     61 H29         4.6789   -8.2727    0.9808 H         1 <0>         0.3899
     62 H30        -0.4178   -5.3851    7.9703 H         1 <0>         0.4325
@<TRIPOS>BOND
     1    1    2 1
     2    1   33 1
     3    1   34 1
     4    1   35 1
     5    2    7 ar
     6    2    3 ar
     7    3    4 ar
     8    3   36 1
     9    4    5 ar
    10    4   37 1
    11    5    6 ar
    12    5   38 1
    13    6    7 ar
    14    6    8 1
    15    7   39 1
    16    8    9 2
    17    8   40 1
    18    9   32 1
    19    9   10 1
    20   10   15 1
    21   10   11 2
    22   11   12 1
    23   11   23 1
    24   12   13 2
    25   12   41 1
    26   13   14 1
    27   13   42 1
    28   14   19 1
    29   14   15 1
    30   14   43 1
    31   15   16 1
    32   15   44 1
    33   16   17 2
    34   16   22 1
    35   17   18 1
    36   17   45 1
    37   18   19 1
    38   18   20 1
    39   18   21 1
    40   19   46 1
    41   19   62 1
    42   20   47 1
    43   20   48 1
    44   20   49 1
    45   21   50 1
    46   21   51 1
    47   21   52 1
    48   22   53 1
    49   22   54 1
    50   22   55 1
    51   23   28 ar
    52   23   24 ar
    53   24   25 ar
    54   24   32 1
    55   25   26 ar
    56   25   56 1
    57   26   27 ar
    58   26   57 1
    59   27   28 ar
    60   27   31 1
    61   28   29 1
    62   29   30 1
    63   30   58 1
    64   30   59 1
    65   30   60 1
    66   31   61 1
@<TRIPOS>MOLECULE
CHEMBL65690
   51    54     0     0     0
SMALL
USER_CHARGES

@<TRIPOS>ATOM
      1 C1         -0.0184    1.5049    0.0103 C.3       1 <0>        -0.1184
      2 C2          0.0021   -0.0041    0.0020 C.2       1 <0>        -0.0592
      3 C3          0.0014   -0.5999   -1.1888 C.2       1 <0>        -0.1676
      4 C4         -0.0635   -2.0894   -1.3577 C.3       1 <0>         0.2138
      5 N1          0.3261   -2.7719   -0.1254 N.pl3     1 <0>        -0.7343
      6 C5          0.0865   -2.1995    1.1176 C.ar      1 <0>         0.2270
      7 C6          0.0245   -0.7916    1.2411 C.ar      1 <0>        -0.0706
      8 C7          0.0508   -0.2612    2.5235 C.ar      1 <0>        -0.0163
      9 C8         -0.3602   -1.0837    3.6157 C.ar      1 <0>        -0.0985
     10 C9         -0.3930   -2.4566    3.4612 C.ar      1 <0>        -0.0504
     11 C10        -0.1127   -3.0078    2.2255 C.ar      1 <0>        -0.1834
     12 C11        -0.7395   -0.4024    4.8705 C.ar      1 <0>        -0.0628
     13 C12        -1.1562   -1.1299    5.9818 C.ar      1 <0>        -0.1181
     14 C13        -1.5131   -0.4722    7.1440 C.ar      1 <0>         0.0786
     15 C14        -1.4561    0.9113    7.2070 C.ar      1 <0>        -0.1219
     16 C15        -1.0420    1.6422    6.1107 C.ar      1 <0>        -0.1067
     17 C16        -0.6767    0.9966    4.9406 C.ar      1 <0>         0.1078
     18 O1         -0.2477    1.7217    3.8709 O.3       1 <0>        -0.2394
     19 C17         0.5238    1.0577    2.9589 C.2       1 <0>         0.0821
     20 C18         1.7124    1.5785    2.5614 C.2       1 <0>        -0.1059
     21 C19         2.1257    2.8996    3.0320 C.2       1 <0>        -0.1380
     22 C20         3.2947    3.4118    2.6410 C.2       1 <0>        -0.1069
     23 C21         4.1886    2.6282    1.7147 C.3       1 <0>        -0.1266
     24 C22         3.7207    4.7735    3.1260 C.3       1 <0>        -0.1199
     25 F1         -1.9173   -1.1793    8.2221 F         1 <0>        -0.1368
     26 C23         0.8837   -2.5096   -2.4879 C.3       1 <0>        -0.1546
     27 C24        -1.4935   -2.4954   -1.7327 C.3       1 <0>        -0.1604
     28 H1          1.0042    1.8822    0.0026 H         1 <0>         0.0717
     29 H2         -0.5456    1.8660   -0.8727 H         1 <0>         0.0672
     30 H3         -0.5286    1.8565    0.9071 H         1 <0>         0.0694
     31 H4          0.0506    0.0249   -2.0746 H         1 <0>         0.1273
     32 H5          0.7560   -3.6506   -0.1765 H         1 <0>         0.4048
     33 H6         -0.6372   -3.0968    4.2962 H         1 <0>         0.1324
     34 H7         -0.0503   -4.0816    2.1176 H         1 <0>         0.1294
     35 H8         -1.2019   -2.2084    5.9412 H         1 <0>         0.1419
     36 H9         -1.7330    1.4180    8.1189 H         1 <0>         0.1457
     37 H10        -1.0006    2.7205    6.1676 H         1 <0>         0.1456
     38 H11         2.3530    1.0169    1.8976 H         1 <0>         0.1400
     39 H12         1.4851    3.4611    3.6958 H         1 <0>         0.1204
     40 H13         3.9435    2.8720    0.6810 H         1 <0>         0.0709
     41 H14         5.2296    2.8844    1.9115 H         1 <0>         0.0658
     42 H15         4.0391    1.5615    1.8817 H         1 <0>         0.0661
     43 H16         2.9518    5.1827    3.7814 H         1 <0>         0.0637
     44 H17         4.6580    4.6867    3.6756 H         1 <0>         0.0692
     45 H18         3.8603    5.4361    2.2719 H         1 <0>         0.0693
     46 H19         1.9023   -2.2136   -2.2372 H         1 <0>         0.0633
     47 H20         0.8405   -3.5913   -2.6149 H         1 <0>         0.0633
     48 H21         0.5816   -2.0225   -3.4150 H         1 <0>         0.0740
     49 H22        -1.7759   -2.0098   -2.6668 H         1 <0>         0.0673
     50 H23        -1.5436   -3.5772   -1.8560 H         1 <0>         0.0613
     51 H24        -2.1778   -2.1878   -0.9420 H         1 <0>         0.0571
@<TRIPOS>BOND
     1    1    2 1
     2    1   28 1
     3    1   29 1
     4    1   30 1
     5    2    7 1
     6    2    3 2
     7    3    4 1
     8    3   31 1
     9    4    5 1
    10    4   26 1
    11    4   27 1
    12    5    6 1
    13    5   32 1
    14    6   11 ar
    15    6    7 ar
    16    7    8 ar
    17    8   19 1
    18    8    9 ar
    19    9   10 ar
    20    9   12 1
    21   10   11 ar
    22   10   33 1
    23   11   34 1
    24   12   17 ar
    25   12   13 ar
    26   13   14 ar
    27   13   35 1
    28   14   15 ar
    29   14   25 1
    30   15   16 ar
    31   15   36 1
    32   16   17 ar
    33   16   37 1
    34   17   18 1
    35   18   19 1
    36   19   20 2
    37   20   21 1
    38   20   38 1
    39   21   22 2
    40   21   39 1
    41   22   23 1
    42   22   24 1
    43   23   40 1
    44   23   41 1
    45   23   42 1
    46   24   43 1
    47   24   44 1
    48   24   45 1
    49   26   46 1
    50   26   47 1
    51   26   48 1
    52   27   49 1
    53   27   50 1
    54   27   51 1
@<TRIPOS>MOLECULE
CHEMBL438138
   38    41     0     0     0
SMALL
USER_CHARGES

@<TRIPOS>ATOM
      1 C1         -1.3282    1.0869    0.1256 C.3       1 <0>         0.0549
      2 N1         -0.5791   -0.1700    0.0533 N.pl3     1 <0>        -0.4143
      3 C2         -0.4370   -0.9579   -1.0667 C.2       1 <0>         0.0562
      4 C3          0.3371   -2.0491   -0.7253 C.2       1 <0>        -0.1074
      5 C4          0.6697   -1.9210    0.6227 C.2       1 <0>        -0.1771
      6 C5          0.1008   -0.7540    1.0846 C.2       1 <0>         0.0962
      7 C6          0.2051   -0.2265    2.4605 C.ar      1 <0>        -0.0129
      8 C7         -0.0148    1.1320    2.7072 C.ar      1 <0>        -0.1160
      9 C8          0.0823    1.6267    3.9891 C.ar      1 <0>        -0.0962
     10 C9          0.3986    0.7763    5.0405 C.ar      1 <0>         0.0933
     11 C10         0.6193   -0.5831    4.8007 C.ar      1 <0>         0.0992
     12 C11         0.5175   -1.0847    3.5152 C.ar      1 <0>        -0.0799
     13 N2          0.9116   -1.1664    6.0320 N.am      1 <0>        -0.5261
     14 C12         0.8705   -0.2068    6.9755 C.2       1 <0>         0.6840
     15 O1          1.0791   -0.3813    8.1616 O.2       1 <0>        -0.5467
     16 N3          0.5638    0.9748    6.4083 N.am      1 <0>        -0.6430
     17 H1          0.4733    1.8210    6.8737 H         1 <0>         0.4358
     18 C13         1.2118   -2.5819    6.2609 C.3       1 <0>         0.1318
     19 C14         0.6277   -3.1312    7.5731 C.3       1 <0>        -0.1547
     20 C15         1.9444   -3.9075    7.7425 C.3       1 <0>        -0.1359
     21 C16         2.6027   -2.8261    6.8695 C.3       1 <0>        -0.1474
     22 C17        -0.9948   -0.6928   -2.3587 C.1       1 <0>         0.2766
     23 N4         -1.4374   -0.4825   -3.3836 N.1       1 <0>        -0.4037
     24 H2         -0.6466    1.9250   -0.0199 H         1 <0>         0.0866
     25 H3         -2.0916    1.1002   -0.6524 H         1 <0>         0.0878
     26 H4         -1.8038    1.1708    1.1027 H         1 <0>         0.0997
     27 H5          0.6307   -2.8547   -1.3820 H         1 <0>         0.1542
     28 H6          1.2683   -2.6102    1.1998 H         1 <0>         0.1526
     29 H7         -0.2610    1.7950    1.8910 H         1 <0>         0.1375
     30 H8         -0.0875    2.6766    4.1767 H         1 <0>         0.1366
     31 H9          0.6836   -2.1353    3.3284 H         1 <0>         0.1389
     32 H10         0.9997   -3.2053    5.3923 H         1 <0>         0.1236
     33 H11         0.4703   -2.3672    8.3345 H         1 <0>         0.1099
     34 H12        -0.2419   -3.7725    7.4294 H         1 <0>         0.0741
     35 H13         2.3124   -3.9244    8.7683 H         1 <0>         0.0783
     36 H14         1.9320   -4.8943    7.2798 H         1 <0>         0.0856
     37 H15         3.3276   -3.2211    6.1577 H         1 <0>         0.0766
     38 H16         2.9852   -1.9787    7.4385 H         1 <0>         0.0911
@<TRIPOS>BOND
     1    1    2 1
     2    1   24 1
     3    1   25 1
     4    1   26 1
     5    2    6 1
     6    2    3 1
     7    3    4 2
     8    3   22 1
     9    4    5 1
    10    4   27 1
    11    5    6 2
    12    5   28 1
    13    6    7 1
    14    7   12 ar
    15    7    8 ar
    16    8    9 ar
    17    8   29 1
    18    9   10 ar
    19    9   30 1
    20   10   16 1
    21   10   11 ar
    22   11   12 ar
    23   11   13 1
    24   12   31 1
    25   13   14 am
    26   13   18 1
    27   14   15 2
    28   14   16 am
    29   16   17 1
    30   18   21 1
    31   18   19 1
    32   18   32 1
    33   19   20 1
    34   19   33 1
    35   19   34 1
    36   20   21 1
    37   20   35 1
    38   20   36 1
    39   21   37 1
    40   21   38 1
    41   22   23 3
