@<TRIPOS>MOLECULE
3KBA-WOW
 49 51 0 0 0
SMALL
SF_CHARGES


@<TRIPOS>ATOM
1    C        -0.1650   -8.7890   22.1950  C.3        1 SUBUNIT     -0.0516
2    C        -1.3060   -9.7290   22.3430  C.2        1 SUBUNIT     -0.0274
3    C        -1.4100  -10.8030   21.4580  C.2        1 SUBUNIT     -0.0979
4    C        -2.4550  -11.7100   21.5860  C.2        1 SUBUNIT     -0.0959
5    C        -3.4330  -11.5150   22.5570  C.2        1 SUBUNIT     -0.0975
6    C        -3.3220  -10.4570   23.4540  C.2        1 SUBUNIT     -0.1019
7    C        -2.2820   -9.5410   23.3290  C.2        1 SUBUNIT     -0.0470
8    C        -2.1950   -8.4160   24.3000  C.3        1 SUBUNIT      0.1816
9    N        -3.3280   -8.1100   25.1100  N.pl3      1 SUBUNIT     -0.4479
10   C        -4.1000   -6.9470   24.8250  C.3        1 SUBUNIT      0.1780
11   C        -3.3990   -5.6290   24.8970  C.3        1 SUBUNIT     -0.0823
12   C        -3.1310   -5.2460   23.4420  C.3        1 SUBUNIT      0.1538
13   N        -3.9050   -6.1610   22.6220  N.pl3      1 SUBUNIT     -0.5000
14   C        -4.7670   -6.9470   23.5040  C.3        1 SUBUNIT      0.1407
15   S        -3.7230   -5.5970   21.1220  S.o2       1 SUBUNIT      1.2916
16   C        -3.1370   -6.8660   20.0840  C.3        1 SUBUNIT     -0.1445
17   O        -2.8210   -4.5020   21.1500  O.2        1 SUBUNIT     -0.6145
18   O        -4.9790   -5.1660   20.6430  O.2        1 SUBUNIT     -0.6145
19   C        -3.5200   -8.7700   26.3520  C.2        1 SUBUNIT      0.1192
20   C        -4.6060   -8.4300   27.1590  C.2        1 SUBUNIT     -0.1087
21   C        -4.7930   -9.0480   28.3910  C.2        1 SUBUNIT     -0.1050
22   C        -3.8980  -10.0220   28.8140  C.2        1 SUBUNIT      0.0227
23   C        -4.1100  -10.6660   30.1350  C.1        1 SUBUNIT      0.3330
24   N        -4.2790  -11.1670   31.1350  N.1        1 SUBUNIT     -0.4679
25   C        -2.8280  -10.3870   27.9910  C.2        1 SUBUNIT      0.0123
26   Cl       -1.6390  -11.5060   28.5170  Cl         1 SUBUNIT     -0.0921
27   C        -2.6160   -9.7370   26.7790  C.2        1 SUBUNIT     -0.1153
28   H         0.7908   -9.3113   22.3075  H          1 SUBUNIT      0.0572
29   H        -0.2074   -7.9982   22.9512  H          1 SUBUNIT      0.0572
30   H        -0.1743   -8.3127   21.2091  H          1 SUBUNIT      0.0572
31   H        -0.6822  -10.9307   20.6759  H          1 SUBUNIT      0.1144
32   H        -2.5074  -12.5638   20.9333  H          1 SUBUNIT      0.1128
33   H        -4.2751  -12.1824   22.6141  H          1 SUBUNIT      0.1112
34   H        -4.0420  -10.3470   24.2460  H          1 SUBUNIT      0.1098
35   H        -1.3731   -8.6353   24.9895  H          1 SUBUNIT      0.0297
36   H        -1.9652   -7.5067   23.7349  H          1 SUBUNIT      0.0297
37   H        -4.8050   -7.0608   25.6551  H          1 SUBUNIT      0.0299
38   H        -4.0371   -4.8845   25.3845  H          1 SUBUNIT      0.0467
39   H        -2.4608   -5.7267   25.4532  H          1 SUBUNIT      0.0467
40   H        -3.4512   -4.2173   23.2464  H          1 SUBUNIT      0.0300
41   H        -2.0673   -5.3493   23.2033  H          1 SUBUNIT      0.0300
42   H        -4.8659   -7.9693   23.1244  H          1 SUBUNIT      0.0296
43   H        -5.7577   -6.4859   23.5747  H          1 SUBUNIT      0.0296
44   H        -2.1708   -7.2444   20.4338  H          1 SUBUNIT      0.0470
45   H        -3.0058   -6.5050   19.0586  H          1 SUBUNIT      0.0470
46   H        -3.8382   -7.7067   20.0577  H          1 SUBUNIT      0.0470
47   H        -5.3059   -7.6833   26.8268  H          1 SUBUNIT      0.1050
48   H        -5.6265   -8.7734   29.0136  H          1 SUBUNIT      0.1055
49   H        -1.7587   -9.9806   26.1761  H          1 SUBUNIT      0.1061
@<TRIPOS>BOND
     1    1    2 1
     2    2    3 1
     3    2    7 2
     4    3    4 2
     5    4    5 1
     6    5    6 2
     7    6    7 1
     8    7    8 1
     9    8    9 1
    10    9   10 1
    11    9   19 1
    12   10   11 1
    13   10   14 1
    14   11   12 1
    15   12   13 1
    16   13   14 1
    17   13   15 1
    18   15   16 1
    19   15   17 2
    20   15   18 2
    21   19   20 1
    22   19   27 2
    23   20   21 2
    24   21   22 1
    25   22   23 1
    26   22   25 2
    27   23   24 3
    28   25   26 1
    29   25   27 1
    30    1   28 1
    31    1   29 1
    32    1   30 1
    33    3   31 1
    34    4   32 1
    35    5   33 1
    36    6   34 1
    37    8   35 1
    38    8   36 1
    39   10   37 1
    40   11   38 1
    41   11   39 1
    42   12   40 1
    43   12   41 1
    44   14   42 1
    45   14   43 1
    46   16   44 1
    47   16   45 1
    48   16   46 1
    49   20   47 1
    50   21   48 1
    51   27   49 1
