@<TRIPOS>MOLECULE
CHEMBL8659
   53    52     0     0     0
SMALL
USER_CHARGES

@<TRIPOS>ATOM
      1 C1          0.1245    1.2913    1.2265 C.3       1 <0>        -0.1537
      2 C2          0.1194   -0.2123    0.9436 C.3       1 <0>        -0.1265
      3 C3         -1.3223   -0.7245    0.9342 C.3       1 <0>        -0.1208
      4 C4         -1.3274   -2.2282    0.6513 C.3       1 <0>        -0.1217
      5 C5         -2.7691   -2.7404    0.6419 C.3       1 <0>        -0.1197
      6 C6         -2.7742   -4.2440    0.3590 C.3       1 <0>        -0.1215
      7 C7         -4.2159   -4.7563    0.3496 C.3       1 <0>        -0.1126
      8 C8         -4.2210   -6.2599    0.0667 C.3       1 <0>        -0.1021
      9 C9         -5.6410   -6.7645    0.0574 C.2       1 <0>        -0.1660
     10 C10        -6.0832   -7.4576   -0.9625 C.2       1 <0>        -0.1535
     11 C11        -5.1311   -7.8959   -2.0452 C.3       1 <0>        -0.1025
     12 C12        -5.2475   -9.4083   -2.2451 C.3       1 <0>        -0.1136
     13 C13        -4.2809   -9.8534   -3.3444 C.3       1 <0>        -0.1191
     14 C14        -4.3973  -11.3658   -3.5443 C.3       1 <0>        -0.1191
     15 C15        -3.4307  -11.8109   -4.6435 C.3       1 <0>        -0.1205
     16 C16        -3.5471  -13.3233   -4.8434 C.3       1 <0>        -0.0935
     17 C17        -2.5805  -13.7684   -5.9427 C.3       1 <0>        -0.1839
     18 C18        -2.6952  -15.2580   -6.1396 C.2       1 <0>         0.4872
     19 O1         -3.4776  -15.9039   -5.4634 O.co2     1 <0>        -0.7001
     20 O2         -2.0056  -15.8174   -6.9751 O.co2     1 <0>        -0.7101
     21 H1          1.1516    1.6563    1.2332 H         1 <0>         0.0528
     22 H2         -0.4399    1.8089    0.4508 H         1 <0>         0.0530
     23 H3         -0.3345    1.4800    2.1969 H         1 <0>         0.0527
     24 H4          0.5784   -0.4010   -0.0269 H         1 <0>         0.0607
     25 H5          0.6838   -0.7299    1.7192 H         1 <0>         0.0603
     26 H6         -1.7813   -0.5358    1.9046 H         1 <0>         0.0599
     27 H7         -1.8867   -0.2070    0.1585 H         1 <0>         0.0603
     28 H8         -0.8684   -2.4169   -0.3192 H         1 <0>         0.0612
     29 H9         -0.7630   -2.7457    1.4270 H         1 <0>         0.0607
     30 H10        -3.2281   -2.5517    1.6123 H         1 <0>         0.0598
     31 H11        -3.3335   -2.2229   -0.1338 H         1 <0>         0.0603
     32 H12        -2.3152   -4.4327   -0.6115 H         1 <0>         0.0618
     33 H13        -2.2098   -4.7616    1.1347 H         1 <0>         0.0611
     34 H14        -4.6749   -4.5676    1.3201 H         1 <0>         0.0597
     35 H15        -4.7803   -4.2387   -0.4261 H         1 <0>         0.0609
     36 H16        -3.7620   -6.4486   -0.9038 H         1 <0>         0.0772
     37 H17        -3.6566   -6.7775    0.8424 H         1 <0>         0.0673
     38 H18        -6.2941   -6.5546    0.8916 H         1 <0>         0.1055
     39 H19        -7.1301   -7.7148   -1.0273 H         1 <0>         0.1068
     40 H20        -5.3798   -7.3862   -2.9760 H         1 <0>         0.0675
     41 H21        -4.1107   -7.6453   -1.7551 H         1 <0>         0.0752
     42 H22        -4.9988   -9.9181   -1.3143 H         1 <0>         0.0612
     43 H23        -6.2679   -9.6590   -2.5352 H         1 <0>         0.0609
     44 H24        -4.5296   -9.3437   -4.2752 H         1 <0>         0.0591
     45 H25        -3.2605   -9.6028   -3.0543 H         1 <0>         0.0587
     46 H26        -4.1486  -11.8756   -2.6135 H         1 <0>         0.0596
     47 H27        -5.4177  -11.6165   -3.8344 H         1 <0>         0.0596
     48 H28        -3.6794  -11.3012   -5.5743 H         1 <0>         0.0537
     49 H29        -2.4103  -11.5602   -4.3534 H         1 <0>         0.0537
     50 H30        -3.2984  -13.8330   -3.9126 H         1 <0>         0.0570
     51 H31        -4.5675  -13.5740   -5.1335 H         1 <0>         0.0570
     52 H32        -2.8292  -13.2586   -6.8735 H         1 <0>         0.0540
     53 H33        -1.5601  -13.5177   -5.6526 H         1 <0>         0.0540
@<TRIPOS>BOND
     1    1    2 1
     2    1   21 1
     3    1   22 1
     4    1   23 1
     5    2    3 1
     6    2   24 1
     7    2   25 1
     8    3    4 1
     9    3   26 1
    10    3   27 1
    11    4    5 1
    12    4   28 1
    13    4   29 1
    14    5    6 1
    15    5   30 1
    16    5   31 1
    17    6    7 1
    18    6   32 1
    19    6   33 1
    20    7    8 1
    21    7   34 1
    22    7   35 1
    23    8    9 1
    24    8   36 1
    25    8   37 1
    26    9   10 2
    27    9   38 1
    28   10   11 1
    29   10   39 1
    30   11   12 1
    31   11   40 1
    32   11   41 1
    33   12   13 1
    34   12   42 1
    35   12   43 1
    36   13   14 1
    37   13   44 1
    38   13   45 1
    39   14   15 1
    40   14   46 1
    41   14   47 1
    42   15   16 1
    43   15   48 1
    44   15   49 1
    45   16   17 1
    46   16   50 1
    47   16   51 1
    48   17   18 1
    49   17   52 1
    50   17   53 1
    51   18   19 2
    52   18   20 1
@<TRIPOS>MOLECULE
CHEMBL82293
   49    48     0     0     0
SMALL
USER_CHARGES

@<TRIPOS>ATOM
      1 C1         -0.0187    1.5258    0.0104 C.3       1 <0>        -0.1538
      2 C2          0.0021   -0.0041    0.0020 C.3       1 <0>        -0.1262
      3 C3         -1.4333   -0.5336    0.0129 C.3       1 <0>        -0.1212
      4 C4         -1.4126   -2.0635    0.0045 C.3       1 <0>        -0.1212
      5 C5         -2.8479   -2.5931    0.0153 C.3       1 <0>        -0.1205
      6 C6         -2.8272   -4.1229    0.0069 C.3       1 <0>        -0.1206
      7 C7         -4.2626   -4.6525    0.0178 C.3       1 <0>        -0.1202
      8 C8         -4.2418   -6.1823    0.0094 C.3       1 <0>        -0.1206
      9 C9         -5.6772   -6.7119    0.0202 C.3       1 <0>        -0.1199
     10 C10        -5.6565   -8.2417    0.0118 C.3       1 <0>        -0.1205
     11 C11        -7.0918   -8.7713    0.0227 C.3       1 <0>        -0.1192
     12 C12        -7.0711  -10.3012    0.0143 C.3       1 <0>        -0.1193
     13 C13        -8.5065  -10.8307    0.0251 C.3       1 <0>        -0.1206
     14 C14        -8.4857  -12.3606    0.0167 C.3       1 <0>        -0.0935
     15 C15        -9.9211  -12.8902    0.0276 C.3       1 <0>        -0.1840
     16 C16        -9.9007  -14.3970    0.0193 C.2       1 <0>         0.4873
     17 O1         -8.8367  -14.9922    0.0059 O.co2     1 <0>        -0.7001
     18 O2        -10.9481  -15.0209    0.0259 O.co2     1 <0>        -0.7101
     19 H1          1.0039    1.9031    0.0027 H         1 <0>         0.0526
     20 H2         -0.5459    1.8868   -0.8726 H         1 <0>         0.0531
     21 H3         -0.5289    1.8773    0.9072 H         1 <0>         0.0531
     22 H4          0.5123   -0.3556   -0.8948 H         1 <0>         0.0602
     23 H5          0.5293   -0.3651    0.8851 H         1 <0>         0.0602
     24 H6         -1.9435   -0.1821    0.9097 H         1 <0>         0.0604
     25 H7         -1.9605   -0.1726   -0.8702 H         1 <0>         0.0604
     26 H8         -0.9024   -2.4150   -0.8923 H         1 <0>         0.0604
     27 H9         -0.8854   -2.4246    0.8875 H         1 <0>         0.0604
     28 H10        -3.3581   -2.2415    0.9121 H         1 <0>         0.0601
     29 H11        -3.3751   -2.2320   -0.8677 H         1 <0>         0.0601
     30 H12        -2.3170   -4.4744   -0.8899 H         1 <0>         0.0602
     31 H13        -2.3000   -4.4840    0.8900 H         1 <0>         0.0602
     32 H14        -4.7728   -4.3010    0.9146 H         1 <0>         0.0599
     33 H15        -4.7898   -4.2914   -0.8653 H         1 <0>         0.0599
     34 H16        -3.7316   -6.5338   -0.8874 H         1 <0>         0.0601
     35 H17        -3.7146   -6.5434    0.8924 H         1 <0>         0.0601
     36 H18        -6.1874   -6.3604    0.9170 H         1 <0>         0.0594
     37 H19        -6.2044   -6.3508   -0.8628 H         1 <0>         0.0594
     38 H20        -5.1463   -8.5933   -0.8850 H         1 <0>         0.0599
     39 H21        -5.1293   -8.6028    0.8949 H         1 <0>         0.0599
     40 H22        -7.6020   -8.4198    0.9195 H         1 <0>         0.0583
     41 H23        -7.6190   -8.4102   -0.8604 H         1 <0>         0.0583
     42 H24        -6.5609  -10.6527   -0.8825 H         1 <0>         0.0593
     43 H25        -6.5439  -10.6622    0.8973 H         1 <0>         0.0593
     44 H26        -9.0167  -10.4792    0.9219 H         1 <0>         0.0536
     45 H27        -9.0337  -10.4697   -0.8579 H         1 <0>         0.0536
     46 H28        -7.9755  -12.7121   -0.8801 H         1 <0>         0.0570
     47 H29        -7.9586  -12.7217    0.8998 H         1 <0>         0.0570
     48 H30       -10.4313  -12.5386    0.9244 H         1 <0>         0.0540
     49 H31       -10.4483  -12.5291   -0.8555 H         1 <0>         0.0540
@<TRIPOS>BOND
     1    1    2 1
     2    1   19 1
     3    1   20 1
     4    1   21 1
     5    2    3 1
     6    2   22 1
     7    2   23 1
     8    3    4 1
     9    3   24 1
    10    3   25 1
    11    4    5 1
    12    4   26 1
    13    4   27 1
    14    5    6 1
    15    5   28 1
    16    5   29 1
    17    6    7 1
    18    6   30 1
    19    6   31 1
    20    7    8 1
    21    7   32 1
    22    7   33 1
    23    8    9 1
    24    8   34 1
    25    8   35 1
    26    9   10 1
    27    9   36 1
    28    9   37 1
    29   10   11 1
    30   10   38 1
    31   10   39 1
    32   11   12 1
    33   11   40 1
    34   11   41 1
    35   12   13 1
    36   12   42 1
    37   12   43 1
    38   13   14 1
    39   13   44 1
    40   13   45 1
    41   14   15 1
    42   14   46 1
    43   14   47 1
    44   15   16 1
    45   15   48 1
    46   15   49 1
    47   16   17 2
    48   16   18 1
@<TRIPOS>MOLECULE
CHEMBL1077990
   32    33     0     0     0
SMALL
USER_CHARGES

@<TRIPOS>ATOM
      1 C1         -0.0046    1.4124   -0.0051 C.3       1 <0>         0.0367
      2 O1          0.0099   -0.0164   -0.0169 O.3       1 <0>        -0.3519
      3 C2         -1.1869   -0.6418   -0.0024 C.2       1 <0>         0.5600
      4 O2         -2.2146    0.0108    0.0198 O.2       1 <0>        -0.5065
      5 C3         -1.2465   -2.0520   -0.0128 C.2       1 <0>        -0.3069
      6 C4         -2.3700   -2.8831   -0.0068 C.2       1 <0>         0.2583
      7 C5         -2.1756   -4.2408   -0.0201 C.2       1 <0>        -0.1806
      8 C6         -0.8772   -4.7280   -0.0389 C.2       1 <0>        -0.0213
      9 S1          0.0938   -3.2305   -0.0449 S.3       1 <0>         0.1718
     10 C7         -0.4174   -6.1241   -0.0548 C.2       1 <0>        -0.0973
     11 C8          0.8751   -6.6164   -0.0679 C.2       1 <0>        -0.1283
     12 C9          1.0557   -7.9799   -0.0812 C.2       1 <0>        -0.1593
     13 C10        -0.0317   -8.7946   -0.0812 C.2       1 <0>        -0.1725
     14 S2         -1.3815   -7.6269   -0.0545 S.3       1 <0>         0.1177
     15 N1         -3.6558   -2.3459    0.0126 N.am      1 <0>        -0.6498
     16 C11        -4.6806   -3.0683    0.5070 C.2       1 <0>         0.5513
     17 O3         -4.4690   -4.1460    1.0273 O.2       1 <0>        -0.5221
     18 C12        -6.0615   -2.5498    0.4165 C.2       1 <0>        -0.2199
     19 C13        -7.0829   -3.2698    0.9092 C.2       1 <0>        -0.0782
     20 C14        -8.4601   -2.7528    0.8190 C.2       1 <0>         0.5034
     21 O4         -8.6730   -1.6683    0.2955 O.co2     1 <0>        -0.6778
     22 O5         -9.3899   -3.4082    1.2675 O.co2     1 <0>        -0.6789
     23 H1          1.0192    1.7863   -0.0189 H         1 <0>         0.1017
     24 H2         -0.5366    1.7777   -0.8836 H         1 <0>         0.0623
     25 H3         -0.5074    1.7633    0.8961 H         1 <0>         0.0622
     26 H4         -3.0174   -4.9174   -0.0157 H         1 <0>         0.1733
     27 H5          1.7221   -5.9464   -0.0679 H         1 <0>         0.1389
     28 H6          2.0512   -8.3984   -0.0920 H         1 <0>         0.1393
     29 H7         -0.0696   -9.8739   -0.0909 H         1 <0>         0.1907
     30 H8         -3.8131   -1.4520   -0.3296 H         1 <0>         0.4286
     31 H9         -6.2495   -1.5920   -0.0458 H         1 <0>         0.1396
     32 H10        -6.8949   -4.2276    1.3716 H         1 <0>         0.1153
@<TRIPOS>BOND
     1    1    2 1
     2    1   23 1
     3    1   24 1
     4    1   25 1
     5    2    3 1
     6    3    4 2
     7    3    5 1
     8    5    9 1
     9    5    6 2
    10    6    7 1
    11    6   15 1
    12    7    8 2
    13    7   26 1
    14    8    9 1
    15    8   10 1
    16   10   14 1
    17   10   11 2
    18   11   12 1
    19   11   27 1
    20   12   13 2
    21   12   28 1
    22   13   14 1
    23   13   29 1
    24   15   16 am
    25   15   30 1
    26   16   17 2
    27   16   18 1
    28   18   19 2
    29   18   31 1
    30   19   20 1
    31   19   32 1
    32   20   21 2
    33   20   22 1
@<TRIPOS>MOLECULE
CHEMBL378857
   46    48     0     0     0
SMALL
USER_CHARGES

@<TRIPOS>ATOM
      1 C1         -0.5875    1.3307   -2.8254 C.ar      1 <0>        -0.1123
      2 C2          0.5483    2.0166   -3.2143 C.ar      1 <0>        -0.1090
      3 C3          1.7889    1.4179   -3.1044 C.ar      1 <0>        -0.1110
      4 C4          1.8944    0.1318   -2.6047 C.ar      1 <0>        -0.0312
      5 C5          0.7578   -0.5538   -2.2155 C.ar      1 <0>        -0.0777
      6 C6         -0.4828    0.0460   -2.3263 C.ar      1 <0>        -0.0812
      7 C7          0.8717   -1.9546   -1.6716 C.3       1 <0>         0.0992
      8 O1         -0.4295   -2.4452   -1.3427 O.3       1 <0>        -0.3012
      9 C8         -0.5044   -3.7048   -0.8354 C.ar      1 <0>         0.1070
     10 C9          0.6497   -4.4496   -0.6529 C.ar      1 <0>        -0.2120
     11 C10         0.5718   -5.7296   -0.1367 C.ar      1 <0>        -0.0825
     12 C11        -0.6560   -6.2698    0.1981 C.ar      1 <0>        -0.1392
     13 C12        -1.8113   -5.5322    0.0181 C.ar      1 <0>        -0.0454
     14 C13        -1.7397   -4.2463   -0.4931 C.ar      1 <0>         0.0836
     15 O2         -2.8747   -3.5172   -0.6652 O.3       1 <0>        -0.3208
     16 C14        -3.4447   -3.5037   -1.9755 C.3       1 <0>         0.0848
     17 C15        -4.5749   -2.5079   -2.0215 C.ar      1 <0>        -0.0585
     18 C16        -4.9005   -1.7791   -0.8928 C.ar      1 <0>        -0.0898
     19 C17        -5.9370   -0.8657   -0.9348 C.ar      1 <0>        -0.1177
     20 C18        -6.6487   -0.6802   -2.1056 C.ar      1 <0>        -0.1195
     21 C19        -6.3241   -1.4081   -3.2346 C.ar      1 <0>        -0.1118
     22 C20        -5.2829   -2.3186   -3.1947 C.ar      1 <0>        -0.0325
     23 Cl1        -4.8703   -3.2286   -4.6143 Cl        1 <0>        -0.0640
     24 C21        -3.1480   -6.1245    0.3836 C.3       1 <0>         0.0687
     25 H1         -3.8672   -5.3226    0.5505 H         1 <0>         0.1100
     26 C22        -3.6305   -7.0066   -0.7390 C.2       1 <0>         0.4819
     27 O3         -3.8162   -8.1955   -0.5432 O.co2     1 <0>        -0.6793
     28 O4         -3.8351   -6.5312   -1.8429 O.co2     1 <0>        -0.6781
     29 O5         -3.0150   -6.9008    1.5759 O.3       1 <0>        -0.5493
     30 Cl2         3.4525   -0.6212   -2.4669 Cl        1 <0>        -0.0695
     31 H2         -1.5564    1.8005   -2.9076 H         1 <0>         0.1309
     32 H3          0.4659    3.0203   -3.6042 H         1 <0>         0.1317
     33 H4          2.6760    1.9535   -3.4088 H         1 <0>         0.1343
     34 H5         -1.3703   -0.4893   -2.0228 H         1 <0>         0.1445
     35 H6          1.3242   -2.6007   -2.4239 H         1 <0>         0.0792
     36 H7          1.4942   -1.9475   -0.7769 H         1 <0>         0.0795
     37 H8          1.6100   -4.0302   -0.9143 H         1 <0>         0.1267
     38 H9          1.4721   -6.3091    0.0051 H         1 <0>         0.1252
     39 H10        -0.7128   -7.2703    0.6008 H         1 <0>         0.1263
     40 H11        -2.6817   -3.2211   -2.7008 H         1 <0>         0.0627
     41 H12        -3.8252   -4.4964   -2.2164 H         1 <0>         0.1264
     42 H13        -4.3451   -1.9238    0.0221 H         1 <0>         0.1401
     43 H14        -6.1912   -0.2968   -0.0527 H         1 <0>         0.1256
     44 H15        -7.4587    0.0334   -2.1377 H         1 <0>         0.1268
     45 H16        -6.8803   -1.2634   -4.1489 H         1 <0>         0.1306
     46 H17        -2.3892   -7.6341    1.5001 H         1 <0>         0.3682
@<TRIPOS>BOND
     1    1    6 ar
     2    1    2 ar
     3    1   31 1
     4    2    3 ar
     5    2   32 1
     6    3    4 ar
     7    3   33 1
     8    4    5 ar
     9    4   30 1
    10    5    6 ar
    11    5    7 1
    12    6   34 1
    13    7    8 1
    14    7   35 1
    15    7   36 1
    16    8    9 1
    17    9   14 ar
    18    9   10 ar
    19   10   11 ar
    20   10   37 1
    21   11   12 ar
    22   11   38 1
    23   12   13 ar
    24   12   39 1
    25   13   14 ar
    26   13   24 1
    27   14   15 1
    28   15   16 1
    29   16   17 1
    30   16   40 1
    31   16   41 1
    32   17   22 ar
    33   17   18 ar
    34   18   19 ar
    35   18   42 1
    36   19   20 ar
    37   19   43 1
    38   20   21 ar
    39   20   44 1
    40   21   22 ar
    41   21   45 1
    42   22   23 1
    43   24   25 1
    44   24   26 1
    45   24   29 1
    46   26   27 2
    47   26   28 1
    48   29   46 1
@<TRIPOS>MOLECULE
CHEMBL247920
   61    65     0     0     0
SMALL
USER_CHARGES

@<TRIPOS>ATOM
      1 C1         -0.1024    0.9701   -0.4161 C.3       1 <0>        -0.1465
      2 C2          0.0015   -0.5213   -0.0907 C.3       1 <0>        -0.0637
      3 C3          0.8436   -0.7083    1.1450 C.2       1 <0>         0.1066
      4 C4          2.2045   -0.7609    1.1897 C.2       1 <0>        -0.1856
      5 C5          2.5807   -0.9471    2.5443 C.2       1 <0>         0.1303
      6 N1          1.4828   -1.0016    3.2665 N.2       1 <0>        -0.2450
      7 N2          0.3829   -0.8487    2.4138 N.pl3     1 <0>        -0.3135
      8 C6         -0.9610   -0.8445    2.8027 C.ar      1 <0>         0.1535
      9 C7         -1.7919    0.2004    2.4254 C.ar      1 <0>        -0.1203
     10 C8         -3.1184    0.2031    2.8108 C.ar      1 <0>        -0.1076
     11 C9         -3.6266   -0.8341    3.5735 C.ar      1 <0>        -0.1095
     12 C10        -2.8117   -1.8802    3.9562 C.ar      1 <0>        -0.0928
     13 C11        -1.4738   -1.8970    3.5690 C.ar      1 <0>        -0.0189
     14 C12        -0.5954   -3.0218    3.9724 C.ar      1 <0>        -0.0117
     15 C13         0.0965   -3.7501    3.0057 C.ar      1 <0>        -0.1451
     16 C14         0.9137   -4.7961    3.3837 C.ar      1 <0>        -0.0760
     17 C15         1.0484   -5.1250    4.7198 C.ar      1 <0>        -0.2080
     18 C16         0.3628   -4.4054    5.6886 C.ar      1 <0>         0.1441
     19 C17        -0.4548   -3.3500    5.3186 C.ar      1 <0>        -0.1355
     20 O1          0.4976   -4.7328    7.0007 O.3       1 <0>        -0.2809
     21 C18         1.3611   -5.8285    7.3105 C.3       1 <0>        -0.0057
     22 C19         1.3853   -6.0428    8.8019 C.2       1 <0>         0.5017
     23 O2          0.7244   -5.3239    9.5320 O.co2     1 <0>        -0.6708
     24 O3          2.0659   -6.9351    9.2786 O.co2     1 <0>        -0.6879
     25 C20         3.9675   -1.0608    3.0563 C.ar      1 <0>        -0.0124
     26 C21         4.9470   -1.6896    2.2894 C.ar      1 <0>        -0.0879
     27 C22         6.2363   -1.7921    2.7708 C.ar      1 <0>        -0.1224
     28 C23         6.5574   -1.2723    4.0118 C.ar      1 <0>        -0.1116
     29 C24         5.5894   -0.6475    4.7775 C.ar      1 <0>        -0.1206
     30 C25         4.2981   -0.5341    4.3038 C.ar      1 <0>        -0.0887
     31 C26         3.1250   -0.6454    0.0320 C.ar      1 <0>         0.0097
     32 C27         3.1185   -1.6175   -0.9664 C.ar      1 <0>        -0.1132
     33 C28         3.9770   -1.5050   -2.0411 C.ar      1 <0>        -0.1180
     34 C29         4.8428   -0.4298   -2.1283 C.ar      1 <0>        -0.1248
     35 C30         4.8539    0.5379   -1.1400 C.ar      1 <0>        -0.1168
     36 C31         3.9954    0.4387   -0.0639 C.ar      1 <0>        -0.1017
     37 H1          0.8814    1.3520   -0.6887 H         1 <0>         0.0629
     38 H2         -0.7911    1.1131   -1.2488 H         1 <0>         0.0656
     39 H3         -0.4717    1.5077    0.4572 H         1 <0>         0.0555
     40 H4         -0.9955   -0.9253    0.0845 H         1 <0>         0.0780
     41 H5          0.4636   -1.0445   -0.9279 H         1 <0>         0.0916
     42 H6         -1.4013    1.0126    1.8302 H         1 <0>         0.1324
     43 H7         -3.7621    1.0186    2.5157 H         1 <0>         0.1320
     44 H8         -4.6648   -0.8246    3.8708 H         1 <0>         0.1319
     45 H9         -3.2120   -2.6871    4.5520 H         1 <0>         0.1370
     46 H10        -0.0072   -3.4960    1.9611 H         1 <0>         0.1064
     47 H11         1.4491   -5.3594    2.6338 H         1 <0>         0.1176
     48 H12         1.6889   -5.9446    5.0106 H         1 <0>         0.1269
     49 H13        -0.9855   -2.7863    6.0717 H         1 <0>         0.1283
     50 H14         0.9944   -6.7301    6.8198 H         1 <0>         0.0584
     51 H15         2.3688   -5.6076    6.9587 H         1 <0>         0.0586
     52 H16         4.6974   -2.0962    1.3204 H         1 <0>         0.1237
     53 H17         6.9960   -2.2795    2.1776 H         1 <0>         0.1229
     54 H18         7.5677   -1.3548    4.3846 H         1 <0>         0.1220
     55 H19         5.8456   -0.2441    5.7460 H         1 <0>         0.1249
     56 H20         3.5442   -0.0423    4.9005 H         1 <0>         0.1248
     57 H21         2.4431   -2.4576   -0.8991 H         1 <0>         0.1194
     58 H22         3.9730   -2.2580   -2.8153 H         1 <0>         0.1202
     59 H23         5.5130   -0.3457   -2.9711 H         1 <0>         0.1182
     60 H24         5.5325    1.3749   -1.2127 H         1 <0>         0.1197
     61 H25         4.0013    1.1975    0.7046 H         1 <0>         0.1183
@<TRIPOS>BOND
     1    1    2 1
     2    1   37 1
     3    1   38 1
     4    1   39 1
     5    2    3 1
     6    2   40 1
     7    2   41 1
     8    3    7 1
     9    3    4 2
    10    4    5 1
    11    4   31 1
    12    5    6 2
    13    5   25 1
    14    6    7 1
    15    7    8 1
    16    8   13 ar
    17    8    9 ar
    18    9   10 ar
    19    9   42 1
    20   10   11 ar
    21   10   43 1
    22   11   12 ar
    23   11   44 1
    24   12   13 ar
    25   12   45 1
    26   13   14 1
    27   14   19 ar
    28   14   15 ar
    29   15   16 ar
    30   15   46 1
    31   16   17 ar
    32   16   47 1
    33   17   18 ar
    34   17   48 1
    35   18   19 ar
    36   18   20 1
    37   19   49 1
    38   20   21 1
    39   21   22 1
    40   21   50 1
    41   21   51 1
    42   22   23 2
    43   22   24 1
    44   25   30 ar
    45   25   26 ar
    46   26   27 ar
    47   26   52 1
    48   27   28 ar
    49   27   53 1
    50   28   29 ar
    51   28   54 1
    52   29   30 ar
    53   29   55 1
    54   30   56 1
    55   31   36 ar
    56   31   32 ar
    57   32   33 ar
    58   32   57 1
    59   33   34 ar
    60   33   58 1
    61   34   35 ar
    62   34   59 1
    63   35   36 ar
    64   35   60 1
    65   36   61 1
@<TRIPOS>MOLECULE
CHEMBL394966
   56    60     0     0     0
SMALL
USER_CHARGES

@<TRIPOS>ATOM
      1 C1         -0.0167    1.3792    0.0096 C.ar      1 <0>        -0.1288
      2 C2          1.1686    2.0925    0.0021 C.ar      1 <0>        -0.1203
      3 C3          2.3774    1.4271   -0.0129 C.ar      1 <0>        -0.1118
      4 C4          2.4026    0.0331   -0.0206 C.ar      1 <0>         0.0033
      5 C5          1.2048   -0.6804   -0.0130 C.ar      1 <0>        -0.1049
      6 C6          0.0021   -0.0041    0.0020 C.ar      1 <0>        -0.1189
      7 C7          3.6978   -0.6875   -0.0373 C.2       1 <0>        -0.1180
      8 C8          4.7775   -0.4489   -0.9115 C.2       1 <0>        -0.1580
      9 C9          5.7694   -1.3260   -0.5901 C.2       1 <0>         0.0693
     10 N1          5.3445   -2.1051    0.4567 N.pl3     1 <0>        -0.5252
     11 H1          5.8583   -2.8101    0.8809 H         1 <0>         0.4197
     12 C10         4.0775   -1.7194    0.8083 C.2       1 <0>         0.0826
     13 C11         3.2611   -2.3007    1.8913 C.ar      1 <0>        -0.0212
     14 C12         2.5575   -1.4674    2.7645 C.ar      1 <0>        -0.0869
     15 C13         1.7960   -2.0178    3.7742 C.ar      1 <0>        -0.1179
     16 C14         1.7282   -3.3918    3.9237 C.ar      1 <0>        -0.1154
     17 C15         2.4228   -4.2234    3.0628 C.ar      1 <0>        -0.1158
     18 C16         3.1833   -3.6873    2.0447 C.ar      1 <0>        -0.1108
     19 C17         7.0826   -1.4223   -1.2569 C.ar      1 <0>        -0.0137
     20 C18         7.1781   -1.2876   -2.6424 C.ar      1 <0>        -0.0984
     21 C19         8.4079   -1.3779   -3.2603 C.ar      1 <0>        -0.1180
     22 C20         9.5529   -1.6026   -2.5136 C.ar      1 <0>        -0.1152
     23 C21         9.4777   -1.7384   -1.1420 C.ar      1 <0>        -0.1008
     24 C22         8.2465   -1.6445   -0.4993 C.ar      1 <0>        -0.0313
     25 C23         8.1619   -1.7837    0.9736 C.ar      1 <0>        -0.0312
     26 C24         7.4626   -0.8404    1.7264 C.ar      1 <0>        -0.1463
     27 C25         7.3855   -0.9724    3.0979 C.ar      1 <0>        -0.0771
     28 C26         7.9999   -2.0380    3.7295 C.ar      1 <0>        -0.2094
     29 C27         8.6979   -2.9813    2.9880 C.ar      1 <0>         0.1407
     30 C28         8.7759   -2.8603    1.6103 C.ar      1 <0>        -0.1492
     31 O1          9.3001   -4.0269    3.6134 O.3       1 <0>        -0.2800
     32 C29         9.1740   -4.0924    5.0353 C.3       1 <0>        -0.0065
     33 C30         9.9001   -5.3091    5.5485 C.2       1 <0>         0.5011
     34 O2         10.4726   -6.0513    4.7688 O.co2     1 <0>        -0.6704
     35 O3          9.9151   -5.5512    6.7433 O.co2     1 <0>        -0.6863
     36 H2         -0.9603    1.9042    0.0260 H         1 <0>         0.1168
     37 H3          1.1478    3.1723    0.0077 H         1 <0>         0.1189
     38 H4          3.3021    1.9851   -0.0191 H         1 <0>         0.1213
     39 H5          1.2182   -1.7603   -0.0189 H         1 <0>         0.1178
     40 H6         -0.9264   -0.5557    0.0079 H         1 <0>         0.1181
     41 H7          4.8123    0.2945   -1.6941 H         1 <0>         0.1397
     42 H8          2.6101   -0.3948    2.6494 H         1 <0>         0.1238
     43 H9          1.2516   -1.3748    4.4499 H         1 <0>         0.1233
     44 H10         1.1306   -3.8173    4.7163 H         1 <0>         0.1220
     45 H11         2.3658   -5.2948    3.1858 H         1 <0>         0.1241
     46 H12         3.7212   -4.3375    1.3708 H         1 <0>         0.1187
     47 H13         6.2895   -1.1130   -3.2308 H         1 <0>         0.1280
     48 H14         8.4787   -1.2732   -4.3329 H         1 <0>         0.1248
     49 H15        10.5106   -1.6723   -3.0079 H         1 <0>         0.1249
     50 H16        10.3749   -1.9134   -0.5669 H         1 <0>         0.1289
     51 H17         6.9819   -0.0067    1.2361 H         1 <0>         0.1210
     52 H18         6.8441   -0.2411    3.6797 H         1 <0>         0.1205
     53 H19         7.9369   -2.1365    4.8031 H         1 <0>         0.1283
     54 H20         9.3145   -3.5962    1.0317 H         1 <0>         0.1314
     55 H21         9.6069   -3.1964    5.4801 H         1 <0>         0.0595
     56 H22         8.1196   -4.1583    5.3039 H         1 <0>         0.0589
@<TRIPOS>BOND
     1    1    6 ar
     2    1    2 ar
     3    1   36 1
     4    2    3 ar
     5    2   37 1
     6    3    4 ar
     7    3   38 1
     8    4    5 ar
     9    4    7 1
    10    5    6 ar
    11    5   39 1
    12    6   40 1
    13    7   12 2
    14    7    8 1
    15    8    9 2
    16    8   41 1
    17    9   10 1
    18    9   19 1
    19   10   11 1
    20   10   12 1
    21   12   13 1
    22   13   18 ar
    23   13   14 ar
    24   14   15 ar
    25   14   42 1
    26   15   16 ar
    27   15   43 1
    28   16   17 ar
    29   16   44 1
    30   17   18 ar
    31   17   45 1
    32   18   46 1
    33   19   24 ar
    34   19   20 ar
    35   20   21 ar
    36   20   47 1
    37   21   22 ar
    38   21   48 1
    39   22   23 ar
    40   22   49 1
    41   23   24 ar
    42   23   50 1
    43   24   25 1
    44   25   30 ar
    45   25   26 ar
    46   26   27 ar
    47   26   51 1
    48   27   28 ar
    49   27   52 1
    50   28   29 ar
    51   28   53 1
    52   29   30 ar
    53   29   31 1
    54   30   54 1
    55   31   32 1
    56   32   33 1
    57   32   55 1
    58   32   56 1
    59   33   34 2
    60   33   35 1
@<TRIPOS>MOLECULE
CHEMBL248120
   61    65     0     0     0
SMALL
USER_CHARGES

@<TRIPOS>ATOM
      1 C1          0.4051    0.9688    0.1405 C.3       1 <0>        -0.1462
      2 C2          0.0923   -0.5253    0.0373 C.3       1 <0>        -0.0623
      3 C3         -1.3961   -0.7355    0.1451 C.2       1 <0>         0.1023
      4 C4         -2.1139   -0.8219    1.3002 C.2       1 <0>        -0.1868
      5 C5         -3.4725   -1.0200    0.9451 C.2       1 <0>         0.1307
      6 N1         -3.5489   -1.0486   -0.3676 N.2       1 <0>        -0.2354
      7 N2         -2.2630   -0.8668   -0.8908 N.pl3     1 <0>        -0.3158
      8 C6         -1.9285   -0.8304   -2.2488 C.ar      1 <0>         0.1534
      9 C7         -1.2024    0.2359   -2.7588 C.ar      1 <0>        -0.1196
     10 C8         -0.8731    0.2701   -4.0999 C.ar      1 <0>        -0.1107
     11 C9         -1.2638   -0.7568   -4.9418 C.ar      1 <0>        -0.1107
     12 C10        -1.9862   -1.8242   -4.4482 C.ar      1 <0>        -0.0965
     13 C11        -2.3201   -1.8723   -3.0968 C.ar      1 <0>        -0.0140
     14 C12        -3.0918   -3.0195   -2.5604 C.ar      1 <0>        -0.0515
     15 C13        -2.5904   -3.7618   -1.4923 C.ar      1 <0>        -0.1070
     16 C14        -3.3129   -4.8279   -0.9970 C.ar      1 <0>        -0.1165
     17 C15        -4.5328   -5.1607   -1.5584 C.ar      1 <0>        -0.1072
     18 C16        -5.0349   -4.4281   -2.6186 C.ar      1 <0>        -0.0661
     19 C17        -4.3235   -3.3561   -3.1185 C.ar      1 <0>        -0.0768
     20 C18        -6.3642   -4.7972   -3.2251 C.3       1 <0>         0.0674
     21 C19        -7.4731   -4.1476   -2.4380 C.2       1 <0>         0.4801
     22 O1         -7.5740   -2.9327   -2.4156 O.co2     1 <0>        -0.6816
     23 O2         -8.2694   -4.8369   -1.8237 O.co2     1 <0>        -0.6845
     24 O3         -6.5251   -6.2167   -3.1922 O.3       1 <0>        -0.5539
     25 C20        -4.6071   -1.1693    1.8879 C.ar      1 <0>        -0.0143
     26 C21        -4.4233   -1.8212    3.1062 C.ar      1 <0>        -0.0895
     27 C22        -5.4829   -1.9573    3.9797 C.ar      1 <0>        -0.1254
     28 C23        -6.7258   -1.4483    3.6482 C.ar      1 <0>        -0.1117
     29 C24        -6.9142   -0.8009    2.4404 C.ar      1 <0>        -0.1170
     30 C25        -5.8603   -0.6534    1.5617 C.ar      1 <0>        -0.0807
     31 C26        -1.5727   -0.7263    2.6781 C.ar      1 <0>         0.0127
     32 C27        -0.6904   -1.6954    3.1518 C.ar      1 <0>        -0.1137
     33 C28        -0.1897   -1.6012    4.4344 C.ar      1 <0>        -0.1185
     34 C29        -0.5620   -0.5473    5.2493 C.ar      1 <0>        -0.1262
     35 C30        -1.4374    0.4174    4.7844 C.ar      1 <0>        -0.1167
     36 C31        -1.9402    0.3361    3.5017 C.ar      1 <0>        -0.1013
     37 H1          1.4683    1.1305   -0.0369 H         1 <0>         0.0646
     38 H2         -0.1746    1.5137   -0.6046 H         1 <0>         0.0555
     39 H3          0.1444    1.3267    1.1365 H         1 <0>         0.0628
     40 H4          0.4443   -0.9048   -0.9219 H         1 <0>         0.0769
     41 H5          0.5939   -1.0582    0.8451 H         1 <0>         0.0907
     42 H6         -0.8947    1.0401   -2.1070 H         1 <0>         0.1316
     43 H7         -0.3083    1.1022   -4.4936 H         1 <0>         0.1307
     44 H8         -1.0026   -0.7225   -5.9892 H         1 <0>         0.1302
     45 H9         -2.2890   -2.6233   -5.1085 H         1 <0>         0.1345
     46 H10        -1.6380   -3.5031   -1.0535 H         1 <0>         0.1044
     47 H11        -2.9252   -5.4038   -0.1697 H         1 <0>         0.1155
     48 H12        -5.0949   -5.9959   -1.1675 H         1 <0>         0.1174
     49 H13        -4.7188   -2.7818   -3.9433 H         1 <0>         0.1196
     50 H14        -6.4009   -4.4512   -4.2580 H         1 <0>         0.0993
     51 H15        -6.5027   -6.5946   -2.3024 H         1 <0>         0.3693
     52 H16        -3.4535   -2.2192    3.3659 H         1 <0>         0.1218
     53 H17        -5.3418   -2.4624    4.9238 H         1 <0>         0.1211
     54 H18        -7.5522   -1.5571    4.3349 H         1 <0>         0.1208
     55 H19        -7.8869   -0.4061    2.1865 H         1 <0>         0.1250
     56 H20        -6.0074   -0.1435    0.6211 H         1 <0>         0.1260
     57 H21        -0.3993   -2.5189    2.5165 H         1 <0>         0.1189
     58 H22         0.4939   -2.3519    4.8027 H         1 <0>         0.1194
     59 H23        -0.1680   -0.4777    6.2525 H         1 <0>         0.1175
     60 H24        -1.7250    1.2380    5.4251 H         1 <0>         0.1193
     61 H25        -2.6202    1.0923    3.1382 H         1 <0>         0.1187
@<TRIPOS>BOND
     1    1    2 1
     2    1   37 1
     3    1   38 1
     4    1   39 1
     5    2    3 1
     6    2   40 1
     7    2   41 1
     8    3    7 1
     9    3    4 2
    10    4    5 1
    11    4   31 1
    12    5    6 2
    13    5   25 1
    14    6    7 1
    15    7    8 1
    16    8   13 ar
    17    8    9 ar
    18    9   10 ar
    19    9   42 1
    20   10   11 ar
    21   10   43 1
    22   11   12 ar
    23   11   44 1
    24   12   13 ar
    25   12   45 1
    26   13   14 1
    27   14   19 ar
    28   14   15 ar
    29   15   16 ar
    30   15   46 1
    31   16   17 ar
    32   16   47 1
    33   17   18 ar
    34   17   48 1
    35   18   19 ar
    36   18   20 1
    37   19   49 1
    38   20   21 1
    39   20   24 1
    40   20   50 1
    41   21   22 2
    42   21   23 1
    43   24   51 1
    44   25   30 ar
    45   25   26 ar
    46   26   27 ar
    47   26   52 1
    48   27   28 ar
    49   27   53 1
    50   28   29 ar
    51   28   54 1
    52   29   30 ar
    53   29   55 1
    54   30   56 1
    55   31   36 ar
    56   31   32 ar
    57   32   33 ar
    58   32   57 1
    59   33   34 ar
    60   33   58 1
    61   34   35 ar
    62   34   59 1
    63   35   36 ar
    64   35   60 1
    65   36   61 1
@<TRIPOS>MOLECULE
CHEMBL248120__1
   61    65     0     0     0
SMALL
USER_CHARGES

@<TRIPOS>ATOM
      1 C1          0.4051    0.9688    0.1405 C.3       1 <0>        -0.1459
      2 C2          0.0922   -0.5253    0.0373 C.3       1 <0>        -0.0642
      3 C3         -1.3962   -0.7355    0.1451 C.2       1 <0>         0.1068
      4 C4         -2.1140   -0.8219    1.3002 C.2       1 <0>        -0.1874
      5 C5         -3.4726   -1.0199    0.9451 C.2       1 <0>         0.1278
      6 N1         -3.5490   -1.0485   -0.3676 N.2       1 <0>        -0.2444
      7 N2         -2.2631   -0.8668   -0.8908 N.pl3     1 <0>        -0.3109
      8 C6         -1.9286   -0.8304   -2.2488 C.ar      1 <0>         0.1479
      9 C7         -1.2024    0.2359   -2.7588 C.ar      1 <0>        -0.1207
     10 C8         -0.8731    0.2701   -4.0999 C.ar      1 <0>        -0.1107
     11 C9         -1.2638   -0.7568   -4.9418 C.ar      1 <0>        -0.1084
     12 C10        -1.9861   -1.8242   -4.4482 C.ar      1 <0>        -0.0937
     13 C11        -2.3201   -1.8723   -3.0968 C.ar      1 <0>        -0.0141
     14 C12        -3.0918   -3.0195   -2.5604 C.ar      1 <0>        -0.0514
     15 C13        -2.5904   -3.7618   -1.4923 C.ar      1 <0>        -0.1062
     16 C14        -3.3129   -4.8279   -0.9970 C.ar      1 <0>        -0.1160
     17 C15        -4.5328   -5.1607   -1.5584 C.ar      1 <0>        -0.1054
     18 C16        -5.0349   -4.4281   -2.6186 C.ar      1 <0>        -0.0650
     19 C17        -4.3235   -3.3561   -3.1185 C.ar      1 <0>        -0.0786
     20 C18        -6.3642   -4.7972   -3.2251 C.3       1 <0>         0.0690
     21 C19        -6.1820   -5.9616   -4.1641 C.2       1 <0>         0.4799
     22 O1         -6.7056   -7.0340   -3.9143 O.co2     1 <0>        -0.6833
     23 O2         -5.5110   -5.8314   -5.1737 O.co2     1 <0>        -0.6878
     24 O3         -7.2769   -5.1605   -2.1872 O.3       1 <0>        -0.5517
     25 C20        -4.6072   -1.1692    1.8878 C.ar      1 <0>        -0.0097
     26 C21        -4.4234   -1.8211    3.1062 C.ar      1 <0>        -0.0875
     27 C22        -5.4831   -1.9571    3.9797 C.ar      1 <0>        -0.1221
     28 C23        -6.7259   -1.4481    3.6482 C.ar      1 <0>        -0.1127
     29 C24        -6.9143   -0.8007    2.4403 C.ar      1 <0>        -0.1210
     30 C25        -5.8604   -0.6532    1.5616 C.ar      1 <0>        -0.0886
     31 C26        -1.5728   -0.7263    2.6781 C.ar      1 <0>         0.0108
     32 C27        -0.6906   -1.6955    3.1518 C.ar      1 <0>        -0.1132
     33 C28        -0.1898   -1.6013    4.4344 C.ar      1 <0>        -0.1179
     34 C29        -0.5621   -0.5474    5.2494 C.ar      1 <0>        -0.1253
     35 C30        -1.4375    0.4175    4.7844 C.ar      1 <0>        -0.1172
     36 C31        -1.9403    0.3361    3.5017 C.ar      1 <0>        -0.1022
     37 H1          1.4683    1.1304   -0.0369 H         1 <0>         0.0654
     38 H2         -0.1746    1.5137   -0.6045 H         1 <0>         0.0555
     39 H3          0.1444    1.3266    1.1366 H         1 <0>         0.0625
     40 H4          0.4442   -0.9049   -0.9219 H         1 <0>         0.0783
     41 H5          0.5938   -1.0582    0.8451 H         1 <0>         0.0914
     42 H6         -0.8947    1.0402   -2.1070 H         1 <0>         0.1311
     43 H7         -0.3083    1.1022   -4.4936 H         1 <0>         0.1309
     44 H8         -1.0026   -0.7225   -5.9891 H         1 <0>         0.1315
     45 H9         -2.2890   -2.6233   -5.1085 H         1 <0>         0.1392
     46 H10        -1.6380   -3.5031   -1.0535 H         1 <0>         0.1041
     47 H11        -2.9252   -5.4038   -0.1697 H         1 <0>         0.1158
     48 H12        -5.0949   -5.9959   -1.1675 H         1 <0>         0.1177
     49 H13        -4.7188   -2.7818   -3.9433 H         1 <0>         0.1189
     50 H14        -6.7614   -3.9447   -3.7762 H         1 <0>         0.0990
     51 H15        -6.9872   -5.9139   -1.6547 H         1 <0>         0.3689
     52 H16        -3.4536   -2.2192    3.3659 H         1 <0>         0.1237
     53 H17        -5.3420   -2.4623    4.9237 H         1 <0>         0.1226
     54 H18        -7.5524   -1.5569    4.3348 H         1 <0>         0.1212
     55 H19        -7.8870   -0.4058    2.1864 H         1 <0>         0.1237
     56 H20        -6.0074   -0.1433    0.6210 H         1 <0>         0.1241
     57 H21        -0.3995   -2.5189    2.5165 H         1 <0>         0.1196
     58 H22         0.4937   -2.3520    4.8027 H         1 <0>         0.1202
     59 H23        -0.1681   -0.4778    6.2525 H         1 <0>         0.1180
     60 H24        -1.7251    1.2380    5.4251 H         1 <0>         0.1194
     61 H25        -2.6203    1.0924    3.1381 H         1 <0>         0.1180
@<TRIPOS>BOND
     1    1    2 1
     2    1   37 1
     3    1   38 1
     4    1   39 1
     5    2    3 1
     6    2   40 1
     7    2   41 1
     8    3    7 1
     9    3    4 2
    10    4    5 1
    11    4   31 1
    12    5    6 2
    13    5   25 1
    14    6    7 1
    15    7    8 1
    16    8   13 ar
    17    8    9 ar
    18    9   10 ar
    19    9   42 1
    20   10   11 ar
    21   10   43 1
    22   11   12 ar
    23   11   44 1
    24   12   13 ar
    25   12   45 1
    26   13   14 1
    27   14   19 ar
    28   14   15 ar
    29   15   16 ar
    30   15   46 1
    31   16   17 ar
    32   16   47 1
    33   17   18 ar
    34   17   48 1
    35   18   19 ar
    36   18   20 1
    37   19   49 1
    38   20   21 1
    39   20   24 1
    40   20   50 1
    41   21   22 2
    42   21   23 1
    43   24   51 1
    44   25   30 ar
    45   25   26 ar
    46   26   27 ar
    47   26   52 1
    48   27   28 ar
    49   27   53 1
    50   28   29 ar
    51   28   54 1
    52   29   30 ar
    53   29   55 1
    54   30   56 1
    55   31   36 ar
    56   31   32 ar
    57   32   33 ar
    58   32   57 1
    59   33   34 ar
    60   33   58 1
    61   34   35 ar
    62   34   59 1
    63   35   36 ar
    64   35   60 1
    65   36   61 1
@<TRIPOS>MOLECULE
CHEMBL459902
   38    41     0     0     0
SMALL
USER_CHARGES

@<TRIPOS>ATOM
      1 C1         -1.0088    0.8145    0.7065 C.ar      1 <0>        -0.1212
      2 C2          0.0229    1.7325    0.7685 C.ar      1 <0>        -0.1374
      3 C3          1.3318    1.3118    0.6255 C.ar      1 <0>        -0.1078
      4 C4          1.6092   -0.0270    0.4210 C.ar      1 <0>        -0.1079
      5 C5          0.5775   -0.9450    0.3599 C.ar      1 <0>        -0.0969
      6 C6         -0.7316   -0.5241    0.5015 C.ar      1 <0>        -0.1233
      7 C7          3.0361   -0.4855    0.2641 C.3       1 <0>         0.1168
      8 N1          3.6412   -0.6599    1.5869 N.pl3     1 <0>        -0.4449
      9 C8          4.1874    0.3519    2.3427 C.2       1 <0>         0.0440
     10 C9          4.6506   -0.1515    3.4953 C.2       1 <0>        -0.2056
     11 C10         4.3803   -1.5938    3.4762 C.ar      1 <0>        -0.0903
     12 C11         3.7397   -1.8517    2.2522 C.ar      1 <0>         0.1320
     13 C12         3.3483   -3.1674    1.9454 C.ar      1 <0>        -0.1208
     14 C13         3.5975   -4.1903    2.8611 C.ar      1 <0>        -0.0955
     15 C14         4.2241   -3.9188    4.0630 C.ar      1 <0>        -0.1474
     16 C15         4.6221   -2.6345    4.3732 C.ar      1 <0>        -0.0963
     17 C16         2.6804   -3.4630    0.6682 C.2       1 <0>         0.5307
     18 O1          1.4974   -3.7748    0.6543 O.co2     1 <0>        -0.6736
     19 O2          3.3080   -3.3969   -0.3800 O.co2     1 <0>        -0.6813
     20 C17         5.2593    0.9397    4.3483 C.3       1 <0>        -0.0402
     21 C18         5.4940    2.1181    3.3780 C.3       1 <0>        -0.1137
     22 C19         4.4323    1.8477    2.2900 C.3       1 <0>        -0.0436
     23 H1         -2.0312    1.1426    0.8227 H         1 <0>         0.1156
     24 H2         -0.1938    2.7784    0.9282 H         1 <0>         0.1155
     25 H3          2.1378    2.0290    0.6732 H         1 <0>         0.1133
     26 H4          0.7941   -1.9909    0.1998 H         1 <0>         0.1660
     27 H5         -1.5376   -1.2414    0.4534 H         1 <0>         0.1205
     28 H6          3.0561   -1.4340   -0.2725 H         1 <0>         0.1399
     29 H7          3.5981    0.2612   -0.2968 H         1 <0>         0.0802
     30 H8          3.2982   -5.2018    2.6293 H         1 <0>         0.1178
     31 H9          4.4099   -4.7203    4.7627 H         1 <0>         0.1142
     32 H10         5.1102   -2.4330    5.3153 H         1 <0>         0.1116
     33 H11         4.5689    1.2318    5.1396 H         1 <0>         0.0668
     34 H12         6.2053    0.6049    4.7739 H         1 <0>         0.0645
     35 H13         5.3117    3.0724    3.8722 H         1 <0>         0.0768
     36 H14         6.4994    2.0836    2.9586 H         1 <0>         0.0729
     37 H15         4.8127    2.1348    1.3098 H         1 <0>         0.0696
     38 H16         3.5138    2.3899    2.5145 H         1 <0>         0.0789
@<TRIPOS>BOND
     1    1    6 ar
     2    1    2 ar
     3    1   23 1
     4    2    3 ar
     5    2   24 1
     6    3    4 ar
     7    3   25 1
     8    4    5 ar
     9    4    7 1
    10    5    6 ar
    11    5   26 1
    12    6   27 1
    13    7    8 1
    14    7   28 1
    15    7   29 1
    16    8   12 1
    17    8    9 1
    18    9   22 1
    19    9   10 2
    20   10   11 1
    21   10   20 1
    22   11   16 ar
    23   11   12 ar
    24   12   13 ar
    25   13   14 ar
    26   13   17 1
    27   14   15 ar
    28   14   30 1
    29   15   16 ar
    30   15   31 1
    31   16   32 1
    32   17   18 2
    33   17   19 1
    34   20   21 1
    35   20   33 1
    36   20   34 1
    37   21   22 1
    38   21   35 1
    39   21   36 1
    40   22   37 1
    41   22   38 1
@<TRIPOS>MOLECULE
CHEMBL459901
   41    44     0     0     0
SMALL
USER_CHARGES

@<TRIPOS>ATOM
      1 C1         -0.0167    1.3781    0.0096 C.ar      1 <0>        -0.1159
      2 C2          1.1709    2.0855    0.0021 C.ar      1 <0>        -0.1179
      3 C3          2.3773    1.4107   -0.0130 C.ar      1 <0>        -0.0929
      4 C4          2.3960    0.0285   -0.0201 C.ar      1 <0>        -0.1093
      5 C5          1.2084   -0.6789   -0.0117 C.ar      1 <0>        -0.1042
      6 C6          0.0021   -0.0041    0.0020 C.ar      1 <0>        -0.1267
      7 C7          3.7112   -0.7071   -0.0376 C.3       1 <0>         0.1504
      8 N1          4.1518   -0.9524    1.3379 N.pl3     1 <0>        -0.4712
      9 C8          4.9365   -0.0965    2.0826 C.ar      1 <0>         0.0876
     10 C9          5.5070    1.1391    1.8211 C.ar      1 <0>        -0.0944
     11 C10         6.2686    1.7707    2.8040 C.ar      1 <0>        -0.1142
     12 C11         6.4586    1.1597    4.0537 C.ar      1 <0>        -0.1012
     13 C12         5.9017   -0.0535    4.3182 C.ar      1 <0>        -0.1006
     14 C13         5.1331   -0.7001    3.3427 C.ar      1 <0>        -0.0987
     15 C14         4.4124   -1.9646    3.2932 C.2       1 <0>        -0.1759
     16 C15         3.8424   -2.0574    2.0734 C.2       1 <0>         0.0697
     17 C16         2.9997   -3.2317    1.6306 C.3       1 <0>        -0.0517
     18 C17         3.2591   -4.4037    2.5836 C.3       1 <0>        -0.1118
     19 C18         3.1132   -3.9280    4.0317 C.3       1 <0>        -0.1176
     20 C19         4.2903   -3.0036    4.3779 C.3       1 <0>        -0.0401
     21 C20         6.8763    3.0831    2.5298 C.2       1 <0>         0.5221
     22 O1          6.7127    3.6176    1.4415 O.co2     1 <0>        -0.6909
     23 O2          7.5449    3.6394    3.3902 O.co2     1 <0>        -0.6873
     24 H1         -0.9591    1.9053    0.0259 H         1 <0>         0.1205
     25 H2          1.1563    3.1654    0.0076 H         1 <0>         0.1248
     26 H3          3.3051    1.9634   -0.0196 H         1 <0>         0.1289
     27 H4          1.2231   -1.7588   -0.0176 H         1 <0>         0.1187
     28 H5         -0.9258   -0.5567    0.0082 H         1 <0>         0.1202
     29 H6          3.5884   -1.6586   -0.5549 H         1 <0>         0.0910
     30 H7          4.4573   -0.1052   -0.5563 H         1 <0>         0.0955
     31 H8          5.3626    1.6107    0.8603 H         1 <0>         0.1195
     32 H9          7.0503    1.6552    4.8092 H         1 <0>         0.1257
     33 H10         6.0523   -0.5179    5.2816 H         1 <0>         0.1117
     34 H11         1.9450   -2.9590    1.6643 H         1 <0>         0.0754
     35 H12         3.2747   -3.5176    0.6153 H         1 <0>         0.0702
     36 H13         2.5382   -5.1975    2.3877 H         1 <0>         0.0660
     37 H14         4.2687   -4.7834    2.4260 H         1 <0>         0.0667
     38 H15         2.1735   -3.3873    4.1441 H         1 <0>         0.0629
     39 H16         3.1202   -4.7891    4.7000 H         1 <0>         0.0631
     40 H17         5.2145   -3.5780    4.4416 H         1 <0>         0.0658
     41 H18         4.0943   -2.5159    5.3328 H         1 <0>         0.0660
@<TRIPOS>BOND
     1    1    6 ar
     2    1    2 ar
     3    1   24 1
     4    2    3 ar
     5    2   25 1
     6    3    4 ar
     7    3   26 1
     8    4    5 ar
     9    4    7 1
    10    5    6 ar
    11    5   27 1
    12    6   28 1
    13    7    8 1
    14    7   29 1
    15    7   30 1
    16    8   16 1
    17    8    9 1
    18    9   14 ar
    19    9   10 ar
    20   10   11 ar
    21   10   31 1
    22   11   12 ar
    23   11   21 1
    24   12   13 ar
    25   12   32 1
    26   13   14 ar
    27   13   33 1
    28   14   15 1
    29   15   20 1
    30   15   16 2
    31   16   17 1
    32   17   18 1
    33   17   34 1
    34   17   35 1
    35   18   19 1
    36   18   36 1
    37   18   37 1
    38   19   20 1
    39   19   38 1
    40   19   39 1
    41   20   40 1
    42   20   41 1
    43   21   22 2
    44   21   23 1
@<TRIPOS>MOLECULE
CHEMBL452596
   41    44     0     0     0
SMALL
USER_CHARGES

@<TRIPOS>ATOM
      1 C1         -0.8852    0.9384    0.6295 C.ar      1 <0>        -0.1216
      2 C2          0.1482    1.8257    0.3934 C.ar      1 <0>        -0.1362
      3 C3          1.4432    1.3597    0.2633 C.ar      1 <0>        -0.1123
      4 C4          1.7048    0.0066    0.3698 C.ar      1 <0>        -0.1054
      5 C5          0.6715   -0.8806    0.6068 C.ar      1 <0>        -0.1034
      6 C6         -0.6236   -0.4148    0.7354 C.ar      1 <0>        -0.1223
      7 C7          3.1163   -0.5015    0.2270 C.3       1 <0>         0.1138
      8 N1          3.7099   -0.6742    1.5552 N.pl3     1 <0>        -0.4507
      9 C8          4.2755    0.3276    2.3012 C.2       1 <0>         0.0698
     10 C9          4.7242   -0.1737    3.4717 C.2       1 <0>        -0.1844
     11 C10         4.4225   -1.5908    3.4692 C.ar      1 <0>        -0.1049
     12 C11         3.7765   -1.8493    2.2331 C.ar      1 <0>         0.1205
     13 C12         3.3420   -3.1499    1.9118 C.ar      1 <0>        -0.1211
     14 C13         3.5785   -4.1482    2.8673 C.ar      1 <0>        -0.0992
     15 C14         4.2052   -3.8795    4.0663 C.ar      1 <0>        -0.1495
     16 C15         4.6479   -2.6086    4.3995 C.ar      1 <0>        -0.0945
     17 C16         2.6721   -3.4463    0.6359 C.2       1 <0>         0.5347
     18 O1          1.4891   -3.7583    0.6241 O.co2     1 <0>        -0.6714
     19 O2          3.2980   -3.3809   -0.4133 O.co2     1 <0>        -0.6780
     20 C17         5.4060    0.6395    4.5423 C.3       1 <0>        -0.0357
     21 C18         5.8630    1.9683    3.9286 C.3       1 <0>        -0.1175
     22 C19         4.6945    2.6034    3.1693 C.3       1 <0>        -0.1099
     23 C20         4.3971    1.7817    1.9103 C.3       1 <0>        -0.0593
     24 H1         -1.8962    1.3029    0.7356 H         1 <0>         0.1156
     25 H2         -0.0562    2.8829    0.3103 H         1 <0>         0.1159
     26 H3          2.2504    2.0529    0.0782 H         1 <0>         0.1158
     27 H4          0.8759   -1.9379    0.6896 H         1 <0>         0.1688
     28 H5         -1.4309   -1.1080    0.9202 H         1 <0>         0.1201
     29 H6          3.1069   -1.4589   -0.2940 H         1 <0>         0.1454
     30 H7          3.7051    0.2168   -0.3435 H         1 <0>         0.0798
     31 H8          3.2598   -5.1587    2.6582 H         1 <0>         0.1131
     32 H9          4.3617   -4.6871    4.7661 H         1 <0>         0.1090
     33 H10         5.1363   -2.4117    5.3424 H         1 <0>         0.1183
     34 H11         4.7069    0.8332    5.3558 H         1 <0>         0.0630
     35 H12         6.2707    0.0945    4.9209 H         1 <0>         0.0652
     36 H13         6.1909    2.6413    4.7208 H         1 <0>         0.0624
     37 H14         6.6883    1.7864    3.2402 H         1 <0>         0.0629
     38 H15         3.8121    2.6208    3.8089 H         1 <0>         0.0657
     39 H16         4.9571    3.6223    2.8846 H         1 <0>         0.0658
     40 H17         5.2104    1.9014    1.1945 H         1 <0>         0.0747
     41 H18         3.4616    2.1203    1.4650 H         1 <0>         0.0769
@<TRIPOS>BOND
     1    1    6 ar
     2    1    2 ar
     3    1   24 1
     4    2    3 ar
     5    2   25 1
     6    3    4 ar
     7    3   26 1
     8    4    5 ar
     9    4    7 1
    10    5    6 ar
    11    5   27 1
    12    6   28 1
    13    7    8 1
    14    7   29 1
    15    7   30 1
    16    8   12 1
    17    8    9 1
    18    9   23 1
    19    9   10 2
    20   10   11 1
    21   10   20 1
    22   11   16 ar
    23   11   12 ar
    24   12   13 ar
    25   13   14 ar
    26   13   17 1
    27   14   15 ar
    28   14   31 1
    29   15   16 ar
    30   15   32 1
    31   16   33 1
    32   17   18 2
    33   17   19 1
    34   20   21 1
    35   20   34 1
    36   20   35 1
    37   21   22 1
    38   21   36 1
    39   21   37 1
    40   22   23 1
    41   22   38 1
    42   22   39 1
    43   23   40 1
    44   23   41 1
@<TRIPOS>MOLECULE
CHEMBL267484
   53    52     0     0     0
SMALL
USER_CHARGES

@<TRIPOS>ATOM
      1 C1         -0.0187    1.5258    0.0104 C.3       1 <0>        -0.1539
      2 C2          0.0021   -0.0041    0.0020 C.3       1 <0>        -0.1260
      3 C3          0.7421   -0.5109    1.2415 C.3       1 <0>        -0.1216
      4 C4          0.7628   -2.0407    1.2331 C.3       1 <0>        -0.1156
      5 C5          1.5028   -2.5476    2.4727 C.3       1 <0>        -0.0913
      6 C6          1.5232   -4.0544    2.4644 C.2       1 <0>        -0.1625
      7 C7          2.6631   -4.6945    2.5489 C.2       1 <0>        -0.1487
      8 C8          2.6835   -6.2013    2.5406 C.3       1 <0>        -0.0631
      9 C9          3.5931   -6.6853    1.4409 C.2       1 <0>        -0.1601
     10 C10         4.5765   -7.5054    1.7176 C.2       1 <0>        -0.1441
     11 C11         5.4860   -7.9894    0.6178 C.3       1 <0>        -0.0628
     12 C12         6.9167   -7.6813    0.9771 C.2       1 <0>        -0.1649
     13 C13         7.8084   -8.6408    0.9970 C.2       1 <0>        -0.1400
     14 C14         9.2391   -8.3327    1.3563 C.3       1 <0>        -0.0598
     15 C15         9.6709   -9.2142    2.4998 C.2       1 <0>        -0.1769
     16 C16        10.7383   -9.9643    2.3816 C.2       1 <0>        -0.1337
     17 C17        11.1701  -10.8459    3.5251 C.3       1 <0>        -0.0971
     18 C18        11.2931  -12.2907    3.0370 C.3       1 <0>        -0.0877
     19 C19        11.7315  -13.1857    4.1979 C.3       1 <0>        -0.1844
     20 C20        11.8525  -14.6088    3.7171 C.2       1 <0>         0.4877
     21 O1         11.6106  -14.8819    2.5537 O.co2     1 <0>        -0.6995
     22 O2         12.1924  -15.4870    4.4914 O.co2     1 <0>        -0.7093
     23 H1          1.0039    1.9031    0.0027 H         1 <0>         0.0534
     24 H2         -0.5459    1.8868   -0.8726 H         1 <0>         0.0529
     25 H3         -0.5289    1.8773    0.9072 H         1 <0>         0.0530
     26 H4         -1.0205   -0.3814    0.0098 H         1 <0>         0.0603
     27 H5          0.5123   -0.3556   -0.8948 H         1 <0>         0.0607
     28 H6          1.7647   -0.1336    1.2338 H         1 <0>         0.0611
     29 H7          0.2319   -0.1594    2.1383 H         1 <0>         0.0609
     30 H8         -0.2598   -2.4180    1.2409 H         1 <0>         0.0617
     31 H9          1.2730   -2.3923    0.3363 H         1 <0>         0.0623
     32 H10         2.5254   -2.1703    2.4649 H         1 <0>         0.0648
     33 H11         0.9926   -2.1961    3.3695 H         1 <0>         0.0691
     34 H12         0.5982   -4.6066    2.3887 H         1 <0>         0.1072
     35 H13         3.5882   -4.1423    2.6246 H         1 <0>         0.1080
     36 H14         3.0491   -6.5650    3.5009 H         1 <0>         0.0750
     37 H15         1.6748   -6.5774    2.3698 H         1 <0>         0.0731
     38 H16         3.4343   -6.3561    0.4246 H         1 <0>         0.1077
     39 H17         4.7353   -7.8347    2.7338 H         1 <0>         0.1094
     40 H18         5.3661   -9.0658    0.4945 H         1 <0>         0.0761
     41 H19         5.2290   -7.4861   -0.3142 H         1 <0>         0.0722
     42 H20         7.2070   -6.6693    1.2183 H         1 <0>         0.1068
     43 H21         7.5181   -9.6527    0.7559 H         1 <0>         0.1103
     44 H22         9.8785   -8.5179    0.4932 H         1 <0>         0.0739
     45 H23         9.3222   -7.2869    1.6523 H         1 <0>         0.0695
     46 H24         9.1003   -9.2275    3.4167 H         1 <0>         0.1062
     47 H25        11.3089   -9.9510    1.4647 H         1 <0>         0.1063
     48 H26        12.1351  -10.5062    3.9014 H         1 <0>         0.0659
     49 H27        10.4300  -10.7938    4.3236 H         1 <0>         0.0597
     50 H28        10.3281  -12.6304    2.6606 H         1 <0>         0.0589
     51 H29        12.0332  -12.3427    2.2385 H         1 <0>         0.0592
     52 H30        12.6964  -12.8460    4.5742 H         1 <0>         0.0552
     53 H31        10.9913  -13.1336    4.9963 H         1 <0>         0.0547
@<TRIPOS>BOND
     1    1    2 1
     2    1   23 1
     3    1   24 1
     4    1   25 1
     5    2    3 1
     6    2   26 1
     7    2   27 1
     8    3    4 1
     9    3   28 1
    10    3   29 1
    11    4    5 1
    12    4   30 1
    13    4   31 1
    14    5    6 1
    15    5   32 1
    16    5   33 1
    17    6    7 2
    18    6   34 1
    19    7    8 1
    20    7   35 1
    21    8    9 1
    22    8   36 1
    23    8   37 1
    24    9   10 2
    25    9   38 1
    26   10   11 1
    27   10   39 1
    28   11   12 1
    29   11   40 1
    30   11   41 1
    31   12   13 2
    32   12   42 1
    33   13   14 1
    34   13   43 1
    35   14   15 1
    36   14   44 1
    37   14   45 1
    38   15   16 2
    39   15   46 1
    40   16   17 1
    41   16   47 1
    42   17   18 1
    43   17   48 1
    44   17   49 1
    45   18   19 1
    46   18   50 1
    47   18   51 1
    48   19   20 1
    49   19   52 1
    50   19   53 1
    51   20   21 2
    52   20   22 1
@<TRIPOS>MOLECULE
CHEMBL516469
   40    42     0     0     0
SMALL
USER_CHARGES

@<TRIPOS>ATOM
      1 C1         -0.0653    1.5562    0.4244 C.3       1 <0>        -0.1419
      2 C2         -0.0691    0.0268    0.3833 C.3       1 <0>        -0.1352
      3 C3          0.8954   -0.5143    1.4406 C.3       1 <0>         0.1007
      4 N1          0.8917   -1.9787    1.4012 N.pl3     1 <0>        -0.4657
      5 C4          0.0264   -2.7809    2.1000 C.2       1 <0>         0.0769
      6 C5          0.2999   -4.0691    1.8387 C.2       1 <0>        -0.1809
      7 C6          1.4193   -4.0921    0.8961 C.ar      1 <0>        -0.1058
      8 C7          1.7483   -2.7455    0.6565 C.ar      1 <0>         0.1190
      9 C8          2.8041   -2.4414   -0.2210 C.ar      1 <0>        -0.1128
     10 C9          3.5009   -3.4770   -0.8447 C.ar      1 <0>        -0.1030
     11 C10         3.1601   -4.7951   -0.6052 C.ar      1 <0>        -0.1439
     12 C11         2.1338   -5.1090    0.2618 C.ar      1 <0>        -0.1001
     13 C12         3.1713   -1.0405   -0.4803 C.2       1 <0>         0.5281
     14 O1          2.6392   -0.4280   -1.3961 O.co2     1 <0>        -0.6805
     15 O2          4.0088   -0.4879    0.2199 O.co2     1 <0>        -0.6885
     16 C13        -0.4086   -5.2635    2.4228 C.3       1 <0>        -0.0342
     17 C14        -1.8475   -4.8782    2.7757 C.3       1 <0>        -0.1233
     18 C15        -1.8940   -4.3352    4.2019 C.3       1 <0>        -0.1166
     19 C16        -1.0303   -3.0830    4.3259 C.3       1 <0>        -0.1130
     20 C17        -1.0720   -2.2942    3.0156 C.3       1 <0>        -0.0555
     21 H1          0.9407    1.9227    0.2200 H         1 <0>         0.0639
     22 H2         -0.7524    1.9417   -0.3288 H         1 <0>         0.0540
     23 H3         -0.3814    1.8940    1.4114 H         1 <0>         0.0461
     24 H4         -1.0751   -0.3396    0.5878 H         1 <0>         0.0524
     25 H5          0.2470   -0.3109   -0.6037 H         1 <0>         0.0843
     26 H6          1.9014   -0.1478    1.2361 H         1 <0>         0.1076
     27 H7          0.5793   -0.1765    2.4276 H         1 <0>         0.0733
     28 H8          4.3122   -3.2471   -1.5195 H         1 <0>         0.1151
     29 H9          3.7066   -5.5867   -1.0961 H         1 <0>         0.1129
     30 H10         1.8756   -6.1423    0.4406 H         1 <0>         0.1100
     31 H11        -0.4175   -6.0735    1.6935 H         1 <0>         0.0630
     32 H12         0.1115   -5.5903    3.3233 H         1 <0>         0.0624
     33 H13        -2.1987   -4.1126    2.0838 H         1 <0>         0.0695
     34 H14        -2.4878   -5.7571    2.7005 H         1 <0>         0.0593
     35 H15        -2.9240   -4.0887    4.4595 H         1 <0>         0.0573
     36 H16        -1.5244   -5.0966    4.8888 H         1 <0>         0.0609
     37 H17        -1.4091   -2.4601    5.1362 H         1 <0>         0.0641
     38 H18        -0.0018   -3.3720    4.5425 H         1 <0>         0.0680
     39 H19        -0.9276   -1.2342    3.2248 H         1 <0>         0.0680
     40 H20        -2.0385   -2.4411    2.5336 H         1 <0>         0.0840
@<TRIPOS>BOND
     1    1    2 1
     2    1   21 1
     3    1   22 1
     4    1   23 1
     5    2    3 1
     6    2   24 1
     7    2   25 1
     8    3    4 1
     9    3   26 1
    10    3   27 1
    11    4    8 1
    12    4    5 1
    13    5   20 1
    14    5    6 2
    15    6    7 1
    16    6   16 1
    17    7   12 ar
    18    7    8 ar
    19    8    9 ar
    20    9   10 ar
    21    9   13 1
    22   10   11 ar
    23   10   28 1
    24   11   12 ar
    25   11   29 1
    26   12   30 1
    27   13   14 2
    28   13   15 1
    29   16   17 1
    30   16   31 1
    31   16   32 1
    32   17   18 1
    33   17   33 1
    34   17   34 1
    35   18   19 1
    36   18   35 1
    37   18   36 1
    38   19   20 1
    39   19   37 1
    40   19   38 1
    41   20   39 1
    42   20   40 1
@<TRIPOS>MOLECULE
CHEMBL501361
   37    39     0     0     0
SMALL
USER_CHARGES

@<TRIPOS>ATOM
      1 C1         -0.3963    1.5612   -0.2091 C.3       1 <0>        -0.1414
      2 C2         -0.3284    0.0327   -0.2243 C.3       1 <0>        -0.1363
      3 C3         -1.7187   -0.5423    0.0538 C.3       1 <0>         0.1002
      4 N1         -1.6536   -2.0058    0.0393 N.pl3     1 <0>        -0.4587
      5 C4         -1.8238   -2.7907   -1.0721 C.2       1 <0>         0.0648
      6 C5         -1.7002   -4.0919   -0.7342 C.2       1 <0>        -0.1843
      7 C6         -1.4327   -4.1367    0.6890 C.ar      1 <0>        -0.1036
      8 C7         -1.4100   -2.7866    1.1237 C.ar      1 <0>         0.1148
      9 C8         -1.1667   -2.4749    2.4754 C.ar      1 <0>        -0.1103
     10 C9         -0.9503   -3.5546    3.3430 C.ar      1 <0>        -0.1065
     11 C10        -0.9725   -4.8620    2.9036 C.ar      1 <0>        -0.1455
     12 C11        -1.2178   -5.1917    1.5795 C.ar      1 <0>        -0.0999
     13 C12        -1.1404   -1.0838    2.9537 C.2       1 <0>         0.5325
     14 O1         -0.0879   -0.4600    2.9634 O.co2     1 <0>        -0.6786
     15 O2         -2.1711   -0.5507    3.3416 O.co2     1 <0>        -0.6870
     16 C13        -1.8288   -5.2402   -1.7022 C.3       1 <0>        -0.0358
     17 C14        -2.5115   -4.7296   -2.9767 C.3       1 <0>        -0.1177
     18 C15        -1.8073   -3.4556   -3.4524 C.3       1 <0>        -0.1103
     19 C16        -2.1067   -2.3123   -2.4767 C.3       1 <0>        -0.0530
     20 H1          0.5941    1.9709   -0.4072 H         1 <0>         0.0542
     21 H2         -1.0907    1.9016   -0.9773 H         1 <0>         0.0459
     22 H3         -0.7409    1.8999    0.7680 H         1 <0>         0.0643
     23 H4          0.0161   -0.3060   -1.2013 H         1 <0>         0.0520
     24 H5          0.3659   -0.3077    0.5439 H         1 <0>         0.0864
     25 H6         -2.0632   -0.2036    1.0309 H         1 <0>         0.1086
     26 H7         -2.4130   -0.2019   -0.7144 H         1 <0>         0.0736
     27 H8         -0.7600   -3.3568    4.3875 H         1 <0>         0.1115
     28 H9         -0.7991   -5.6552    3.6157 H         1 <0>         0.1086
     29 H10        -1.2312   -6.2197    1.2484 H         1 <0>         0.1180
     30 H11        -0.8390   -5.6257   -1.9465 H         1 <0>         0.0633
     31 H12        -2.4322   -6.0302   -1.2550 H         1 <0>         0.0653
     32 H13        -2.4488   -5.4917   -3.7534 H         1 <0>         0.0626
     33 H14        -3.5580   -4.5096   -2.7657 H         1 <0>         0.0628
     34 H15        -0.7317   -3.6280   -3.4913 H         1 <0>         0.0660
     35 H16        -2.1689   -3.1898   -4.4457 H         1 <0>         0.0661
     36 H17        -3.1545   -2.0242   -2.5610 H         1 <0>         0.0748
     37 H18        -1.4700   -1.4582   -2.7075 H         1 <0>         0.0725
@<TRIPOS>BOND
     1    1    2 1
     2    1   20 1
     3    1   21 1
     4    1   22 1
     5    2    3 1
     6    2   23 1
     7    2   24 1
     8    3    4 1
     9    3   25 1
    10    3   26 1
    11    4    8 1
    12    4    5 1
    13    5   19 1
    14    5    6 2
    15    6    7 1
    16    6   16 1
    17    7   12 ar
    18    7    8 ar
    19    8    9 ar
    20    9   10 ar
    21    9   13 1
    22   10   11 ar
    23   10   27 1
    24   11   12 ar
    25   11   28 1
    26   12   29 1
    27   13   14 2
    28   13   15 1
    29   16   17 1
    30   16   30 1
    31   16   31 1
    32   17   18 1
    33   17   32 1
    34   17   33 1
    35   18   19 1
    36   18   34 1
    37   18   35 1
    38   19   36 1
    39   19   37 1
@<TRIPOS>MOLECULE
CHEMBL245653
   62    66     0     0     0
SMALL
USER_CHARGES

@<TRIPOS>ATOM
      1 C1          0.2964    1.1232    0.1194 C.3       1 <0>        -0.1698
      2 C2          0.0594   -0.3861    0.0379 C.3       1 <0>         0.0934
      3 N1         -1.3758   -0.6614    0.1407 N.pl3     1 <0>        -0.4405
      4 C3         -2.1053   -0.7705    1.3018 C.2       1 <0>         0.0219
      5 C4         -3.4109   -1.0332    0.9205 C.2       1 <0>         0.0701
      6 N2         -3.4448   -1.0765   -0.4205 N.2       1 <0>        -0.4326
      7 C5         -2.2414   -0.8518   -0.8984 C.2       1 <0>         0.2623
      8 C6         -1.8820   -0.8144   -2.3299 C.ar      1 <0>        -0.0109
      9 C7         -1.1506    0.2575   -2.8422 C.ar      1 <0>        -0.1066
     10 C8         -0.8172    0.2872   -4.1803 C.ar      1 <0>        -0.1247
     11 C9         -1.2041   -0.7425   -5.0222 C.ar      1 <0>        -0.1048
     12 C10        -1.9285   -1.8107   -4.5330 C.ar      1 <0>        -0.1070
     13 C11        -2.2697   -1.8616   -3.1844 C.ar      1 <0>         0.0080
     14 C12        -3.0418   -3.0099   -2.6535 C.ar      1 <0>         0.0022
     15 C13        -2.5421   -3.7546   -1.5851 C.ar      1 <0>        -0.1665
     16 C14        -3.2624   -4.8237   -1.0920 C.ar      1 <0>        -0.0670
     17 C15        -4.4795   -5.1608   -1.6539 C.ar      1 <0>        -0.1999
     18 C16        -4.9855   -4.4247   -2.7186 C.ar      1 <0>         0.2334
     19 C17        -4.2711   -3.3450   -3.2163 C.ar      1 <0>        -0.1805
     20 N3         -6.2159   -4.7686   -3.2836 N.pl3     1 <0>        -0.7170
     21 C18        -6.9731   -5.9053   -2.7538 C.3       1 <0>         0.0555
     22 C19        -8.2539   -6.0624   -3.5323 C.2       1 <0>         0.4907
     23 O1         -8.5103   -5.2960   -4.4451 O.co2     1 <0>        -0.6903
     24 O2         -9.0335   -6.9561   -3.2493 O.co2     1 <0>        -0.6926
     25 C20        -4.5633   -1.2317    1.8303 C.ar      1 <0>         0.0005
     26 C21        -4.3835   -1.8640    3.0602 C.ar      1 <0>        -0.1014
     27 C22        -5.4606   -2.0456    3.9034 C.ar      1 <0>        -0.1220
     28 C23        -6.7168   -1.6018    3.5308 C.ar      1 <0>        -0.1193
     29 C24        -6.9014   -0.9739    2.3120 C.ar      1 <0>        -0.1200
     30 C25        -5.8311   -0.7819    1.4626 C.ar      1 <0>        -0.0893
     31 C26        -1.5975   -0.6347    2.6809 C.ar      1 <0>        -0.0053
     32 C27        -0.4056   -1.2602    3.0547 C.ar      1 <0>        -0.1157
     33 C28         0.0630   -1.1290    4.3453 C.ar      1 <0>        -0.1168
     34 C29        -0.6445   -0.3798    5.2689 C.ar      1 <0>        -0.1182
     35 C30        -1.8259    0.2427    4.9057 C.ar      1 <0>        -0.1147
     36 C31        -2.3034    0.1248    3.6171 C.ar      1 <0>        -0.0890
     37 H1          1.3476    1.3369   -0.0743 H         1 <0>         0.0778
     38 H2         -0.3201    1.6284   -0.6241 H         1 <0>         0.0657
     39 H3          0.0306    1.4795    1.1146 H         1 <0>         0.0647
     40 H4          0.4341   -0.7619   -0.9143 H         1 <0>         0.0967
     41 H5          0.5838   -0.8809    0.8554 H         1 <0>         0.0931
     42 H6         -0.8460    1.0638   -2.1915 H         1 <0>         0.1236
     43 H7         -0.2512    1.1184   -4.5740 H         1 <0>         0.1249
     44 H8         -0.9376   -0.7090   -6.0683 H         1 <0>         0.1263
     45 H9         -2.2269   -2.6095   -5.1959 H         1 <0>         0.1321
     46 H10        -1.5912   -3.4949   -1.1439 H         1 <0>         0.0971
     47 H11        -2.8736   -5.3990   -0.2648 H         1 <0>         0.1093
     48 H12        -5.0387   -5.9987   -1.2646 H         1 <0>         0.1164
     49 H13        -4.6647   -2.7686   -4.0405 H         1 <0>         0.1158
     50 H14        -6.5690   -4.2547   -4.0267 H         1 <0>         0.4074
     51 H15        -6.3777   -6.8135   -2.8467 H         1 <0>         0.0565
     52 H16        -7.2057   -5.7291   -1.7035 H         1 <0>         0.0569
     53 H17        -3.4034   -2.2112    3.3520 H         1 <0>         0.1191
     54 H18        -5.3227   -2.5354    4.8560 H         1 <0>         0.1198
     55 H19        -7.5569   -1.7465    4.1940 H         1 <0>         0.1192
     56 H20        -7.8845   -0.6296    2.0266 H         1 <0>         0.1222
     57 H21        -5.9756   -0.2879    0.5131 H         1 <0>         0.1252
     58 H22         0.1474   -1.8455    2.3350 H         1 <0>         0.1191
     59 H23         0.9840   -1.6123    4.6358 H         1 <0>         0.1230
     60 H24        -0.2731   -0.2807    6.2782 H         1 <0>         0.1218
     61 H25        -2.3729    0.8258    5.6317 H         1 <0>         0.1249
     62 H26        -3.2230    0.6151    3.3336 H         1 <0>         0.1259
@<TRIPOS>BOND
     1    1    2 1
     2    1   37 1
     3    1   38 1
     4    1   39 1
     5    2    3 1
     6    2   40 1
     7    2   41 1
     8    3    7 1
     9    3    4 1
    10    4    5 2
    11    4   31 1
    12    5    6 1
    13    5   25 1
    14    6    7 2
    15    7    8 1
    16    8   13 ar
    17    8    9 ar
    18    9   10 ar
    19    9   42 1
    20   10   11 ar
    21   10   43 1
    22   11   12 ar
    23   11   44 1
    24   12   13 ar
    25   12   45 1
    26   13   14 1
    27   14   19 ar
    28   14   15 ar
    29   15   16 ar
    30   15   46 1
    31   16   17 ar
    32   16   47 1
    33   17   18 ar
    34   17   48 1
    35   18   19 ar
    36   18   20 1
    37   19   49 1
    38   20   21 1
    39   20   50 1
    40   21   22 1
    41   21   51 1
    42   21   52 1
    43   22   23 2
    44   22   24 1
    45   25   30 ar
    46   25   26 ar
    47   26   27 ar
    48   26   53 1
    49   27   28 ar
    50   27   54 1
    51   28   29 ar
    52   28   55 1
    53   29   30 ar
    54   29   56 1
    55   30   57 1
    56   31   36 ar
    57   31   32 ar
    58   32   33 ar
    59   32   58 1
    60   33   34 ar
    61   33   59 1
    62   34   35 ar
    63   34   60 1
    64   35   36 ar
    65   35   61 1
    66   36   62 1
@<TRIPOS>MOLECULE
CHEMBL245653__1
   63    67     0     0     0
SMALL
USER_CHARGES

@<TRIPOS>ATOM
      1 C1          0.3148    1.0997    0.1212 C.3       1 <0>        -0.1778
      2 C2          0.0660   -0.4076    0.0372 C.3       1 <0>         0.0835
      3 N1         -1.3713   -0.6718    0.1408 N.pl3     1 <0>        -0.3978
      4 C3         -2.1005   -0.7780    1.3024 C.2       1 <0>         0.1104
      5 C4         -3.4084   -1.0295    0.9217 C.2       1 <0>         0.1008
      6 N2         -3.4440   -1.0694   -0.4194 N.pl3     1 <0>        -0.4547
      7 C5         -2.2393   -0.8530   -0.8979 C.cat     1 <0>         0.3796
      8 C6         -1.8810   -0.8149   -2.3297 C.ar      1 <0>        -0.0965
      9 C7         -1.1496    0.2569   -2.8420 C.ar      1 <0>        -0.0767
     10 C8         -0.8172    0.2872   -4.1803 C.ar      1 <0>        -0.1176
     11 C9         -1.2051   -0.7419   -5.0225 C.ar      1 <0>        -0.0674
     12 C10        -1.9295   -1.8102   -4.5333 C.ar      1 <0>        -0.1004
     13 C11        -2.2697   -1.8616   -3.1844 C.ar      1 <0>         0.0258
     14 C12        -3.0418   -3.0099   -2.6535 C.ar      1 <0>        -0.0482
     15 C13        -2.5421   -3.7546   -1.5851 C.ar      1 <0>        -0.1948
     16 C14        -3.2624   -4.8237   -1.0920 C.ar      1 <0>        -0.0596
     17 C15        -4.4795   -5.1608   -1.6539 C.ar      1 <0>        -0.1909
     18 C16        -4.9855   -4.4247   -2.7186 C.ar      1 <0>         0.2400
     19 C17        -4.2711   -3.3450   -3.2163 C.ar      1 <0>        -0.1926
     20 N3         -6.2159   -4.7686   -3.2836 N.pl3     1 <0>        -0.7026
     21 C18        -6.9731   -5.9053   -2.7538 C.3       1 <0>         0.0467
     22 C19        -8.2539   -6.0624   -3.5323 C.2       1 <0>         0.4891
     23 O1         -8.5103   -5.2960   -4.4451 O.co2     1 <0>        -0.6882
     24 O2         -9.0335   -6.9561   -3.2493 O.co2     1 <0>        -0.6819
     25 C20        -4.5616   -1.2212    1.8321 C.ar      1 <0>        -0.0620
     26 C21        -4.4369   -2.0343    2.9582 C.ar      1 <0>        -0.0723
     27 C22        -5.5142   -2.2085    3.8026 C.ar      1 <0>        -0.1127
     28 C23        -6.7162   -1.5786    3.5339 C.ar      1 <0>        -0.0869
     29 C24        -6.8460   -0.7708    2.4183 C.ar      1 <0>        -0.1111
     30 C25        -5.7742   -0.5846    1.5694 C.ar      1 <0>        -0.0939
     31 C26        -1.5903   -0.6494    2.6813 C.ar      1 <0>        -0.0532
     32 C27        -0.4031   -1.2852    3.0525 C.ar      1 <0>        -0.0973
     33 C28         0.0677   -1.1607    4.3429 C.ar      1 <0>        -0.1128
     34 C29        -0.6330   -0.4082    5.2690 C.ar      1 <0>        -0.0894
     35 C30        -1.8098    0.2243    4.9084 C.ar      1 <0>        -0.1116
     36 C31        -2.2894    0.1133    3.6199 C.ar      1 <0>        -0.0734
     37 H1          1.3677    1.3055   -0.0717 H         1 <0>         0.0996
     38 H2         -0.2974    1.6110   -0.6217 H         1 <0>         0.0710
     39 H3          0.0514    1.4565    1.1169 H         1 <0>         0.0759
     40 H4          0.4370   -0.7845   -0.9159 H         1 <0>         0.1199
     41 H5          0.5871   -0.9079    0.8535 H         1 <0>         0.1211
     42 H6         -0.8442    1.0628   -2.1911 H         1 <0>         0.1348
     43 H7         -0.2512    1.1184   -4.5741 H         1 <0>         0.1413
     44 H8         -0.9394   -0.7080   -6.0687 H         1 <0>         0.1417
     45 H9         -2.2286   -2.6085   -5.1963 H         1 <0>         0.1455
     46 H10        -1.5912   -3.4949   -1.1439 H         1 <0>         0.1045
     47 H11        -2.8736   -5.3990   -0.2648 H         1 <0>         0.1206
     48 H12        -5.0387   -5.9987   -1.2646 H         1 <0>         0.1277
     49 H13        -4.6647   -2.7686   -4.0405 H         1 <0>         0.1267
     50 H14        -6.5690   -4.2547   -4.0267 H         1 <0>         0.4124
     51 H15        -6.3777   -6.8135   -2.8467 H         1 <0>         0.0639
     52 H16        -7.2057   -5.7291   -1.7035 H         1 <0>         0.0623
     53 H17        -3.4991   -2.5269    3.1688 H         1 <0>         0.1291
     54 H18        -5.4190   -2.8383    4.6748 H         1 <0>         0.1352
     55 H19        -7.5568   -1.7183    4.1975 H         1 <0>         0.1341
     56 H20        -7.7869   -0.2816    2.2137 H         1 <0>         0.1357
     57 H21        -5.8755    0.0495    0.7011 H         1 <0>         0.1247
     58 H22         0.1446   -1.8731    2.3308 H         1 <0>         0.1255
     59 H23         0.9853   -1.6520    4.6313 H         1 <0>         0.1347
     60 H24        -0.2599   -0.3144    6.2781 H         1 <0>         0.1333
     61 H25        -2.3515    0.8100    5.6363 H         1 <0>         0.1353
     62 H26        -3.2054    0.6115    3.3385 H         1 <0>         0.1307
     63 H27        -4.2377   -1.2300   -0.9534 H         1 <0>         0.4615
@<TRIPOS>BOND
     1    1    2 1
     2    1   37 1
     3    1   38 1
     4    1   39 1
     5    2    3 1
     6    2   40 1
     7    2   41 1
     8    3    7 1
     9    3    4 1
    10    4    5 2
    11    4   31 1
    12    5    6 1
    13    5   25 1
    14    6    7 2
    15    6   63 1
    16    7    8 1
    17    8   13 ar
    18    8    9 ar
    19    9   10 ar
    20    9   42 1
    21   10   11 ar
    22   10   43 1
    23   11   12 ar
    24   11   44 1
    25   12   13 ar
    26   12   45 1
    27   13   14 1
    28   14   19 ar
    29   14   15 ar
    30   15   16 ar
    31   15   46 1
    32   16   17 ar
    33   16   47 1
    34   17   18 ar
    35   17   48 1
    36   18   19 ar
    37   18   20 1
    38   19   49 1
    39   20   21 1
    40   20   50 1
    41   21   22 1
    42   21   51 1
    43   21   52 1
    44   22   23 2
    45   22   24 1
    46   25   30 ar
    47   25   26 ar
    48   26   27 ar
    49   26   53 1
    50   27   28 ar
    51   27   54 1
    52   28   29 ar
    53   28   55 1
    54   29   30 ar
    55   29   56 1
    56   30   57 1
    57   31   36 ar
    58   31   32 ar
    59   32   33 ar
    60   32   58 1
    61   33   34 ar
    62   33   59 1
    63   34   35 ar
    64   34   60 1
    65   35   36 ar
    66   35   61 1
    67   36   62 1
@<TRIPOS>MOLECULE
CHEMBL116533
   53    56     0     0     0
SMALL
USER_CHARGES

@<TRIPOS>ATOM
      1 C1         -0.0845    1.2517   -0.1621 C.ar      1 <0>        -0.1120
      2 C2          0.4335    0.8087    1.0418 C.ar      1 <0>        -0.1214
      3 C3          1.6560    0.1696    1.0766 C.ar      1 <0>        -0.0964
      4 C4          2.3695   -0.0294   -0.1049 C.ar      1 <0>        -0.0130
      5 C5          1.8421    0.4194   -1.3154 C.ar      1 <0>        -0.0837
      6 C6          0.6187    1.0572   -1.3375 C.ar      1 <0>        -0.1189
      7 C7          3.6829   -0.7146   -0.0743 C.2       1 <0>         0.0565
      8 C8          4.0052   -1.8371    0.6642 C.2       1 <0>        -0.0092
      9 O1          5.2991   -2.1204    0.3945 O.3       1 <0>        -0.1881
     10 C9          5.7504   -1.2026   -0.4782 C.2       1 <0>         0.2505
     11 N1          4.7837   -0.3632   -0.7652 N.2       1 <0>        -0.4296
     12 C10         7.1177   -1.1513   -1.0319 C.ar      1 <0>        -0.0683
     13 C11         8.0620   -2.1104   -0.6602 C.ar      1 <0>        -0.0497
     14 C12         9.3377   -2.0570   -1.1809 C.ar      1 <0>        -0.1673
     15 C13         9.6869   -1.0558   -2.0714 C.ar      1 <0>        -0.0538
     16 C14         8.7615   -0.1009   -2.4470 C.ar      1 <0>        -0.2150
     17 C15         7.4735   -0.1435   -1.9376 C.ar      1 <0>         0.1870
     18 O2          6.5617    0.7911   -2.3103 O.3       1 <0>        -0.2774
     19 C16         6.9964    1.7880   -3.2373 C.3       1 <0>         0.0542
     20 C17         5.8408    2.7453   -3.5358 C.3       1 <0>        -0.1143
     21 C18         6.3061    3.8127   -4.5283 C.3       1 <0>        -0.0891
     22 C19         5.1506    4.7700   -4.8268 C.3       1 <0>        -0.1814
     23 C20         5.6089    5.8213   -5.8044 C.2       1 <0>         0.4887
     24 O3          6.7538    5.8063   -6.2235 O.co2     1 <0>        -0.7003
     25 O4          4.8350    6.6869   -6.1762 O.co2     1 <0>        -0.7073
     26 C21         3.1112   -2.5816    1.5706 C.ar      1 <0>        -0.0107
     27 C22         1.8270   -2.9400    1.1520 C.ar      1 <0>        -0.0823
     28 C23         0.9966   -3.6360    2.0051 C.ar      1 <0>        -0.1166
     29 C24         1.4321   -3.9792    3.2731 C.ar      1 <0>        -0.1086
     30 C25         2.7025   -3.6276    3.6946 C.ar      1 <0>        -0.1198
     31 C26         3.5463   -2.9369    2.8502 C.ar      1 <0>        -0.0962
     32 H1         -1.0437    1.7474   -0.1849 H         1 <0>         0.1231
     33 H2         -0.1198    0.9637    1.9563 H         1 <0>         0.1236
     34 H3          2.0595   -0.1755    2.0171 H         1 <0>         0.1198
     35 H4          2.3902    0.2684   -2.2336 H         1 <0>         0.1282
     36 H5          0.2091    1.4049   -2.2744 H         1 <0>         0.1272
     37 H6          7.7937   -2.8927    0.0344 H         1 <0>         0.1341
     38 H7         10.0676   -2.7990   -0.8927 H         1 <0>         0.1305
     39 H8         10.6883   -1.0209   -2.4744 H         1 <0>         0.1309
     40 H9          9.0411    0.6770   -3.1421 H         1 <0>         0.1408
     41 H10         7.8284    2.3457   -2.8075 H         1 <0>         0.0637
     42 H11         7.3191    1.3087   -4.1616 H         1 <0>         0.0638
     43 H12         5.0087    2.1876   -3.9656 H         1 <0>         0.0682
     44 H13         5.5181    3.2246   -2.6116 H         1 <0>         0.0685
     45 H14         7.1382    4.3704   -4.0985 H         1 <0>         0.0611
     46 H15         6.6289    3.3333   -5.4526 H         1 <0>         0.0611
     47 H16         4.3185    4.2123   -5.2566 H         1 <0>         0.0568
     48 H17         4.8278    5.2493   -3.9026 H         1 <0>         0.0569
     49 H18         1.4856   -2.6722    0.1630 H         1 <0>         0.1275
     50 H19         0.0038   -3.9137    1.6830 H         1 <0>         0.1291
     51 H20         0.7771   -4.5237    3.9372 H         1 <0>         0.1256
     52 H21         3.0354   -3.8985    4.6856 H         1 <0>         0.1274
     53 H22         4.5391   -2.6672    3.1788 H         1 <0>         0.1259
@<TRIPOS>BOND
     1    1    6 ar
     2    1    2 ar
     3    1   32 1
     4    2    3 ar
     5    2   33 1
     6    3    4 ar
     7    3   34 1
     8    4    5 ar
     9    4    7 1
    10    5    6 ar
    11    5   35 1
    12    6   36 1
    13    7   11 1
    14    7    8 2
    15    8    9 1
    16    8   26 1
    17    9   10 1
    18   10   11 2
    19   10   12 1
    20   12   17 ar
    21   12   13 ar
    22   13   14 ar
    23   13   37 1
    24   14   15 ar
    25   14   38 1
    26   15   16 ar
    27   15   39 1
    28   16   17 ar
    29   16   40 1
    30   17   18 1
    31   18   19 1
    32   19   20 1
    33   19   41 1
    34   19   42 1
    35   20   21 1
    36   20   43 1
    37   20   44 1
    38   21   22 1
    39   21   45 1
    40   21   46 1
    41   22   23 1
    42   22   47 1
    43   22   48 1
    44   23   24 2
    45   23   25 1
    46   26   31 ar
    47   26   27 ar
    48   27   28 ar
    49   27   49 1
    50   28   29 ar
    51   28   50 1
    52   29   30 ar
    53   29   51 1
    54   30   31 ar
    55   30   52 1
    56   31   53 1
@<TRIPOS>MOLECULE
CHEMBL474944
   48    51     0     0     0
SMALL
USER_CHARGES

@<TRIPOS>ATOM
      1 C1          1.3503   -5.7940   -1.7946 C.ar      1 <0>        -0.0873
      2 C2          1.1968   -5.4132   -3.1161 C.ar      1 <0>        -0.1351
      3 C3          1.0806   -4.0782   -3.4434 C.ar      1 <0>        -0.0870
      4 C4          1.1180   -3.1105   -2.4379 C.ar      1 <0>        -0.1347
      5 C5          1.2730   -3.5013   -1.1072 C.ar      1 <0>        -0.0104
      6 C6          1.3881   -4.8400   -0.7935 C.ar      1 <0>        -0.0938
      7 C7          1.3149   -2.4635   -0.0153 C.3       1 <0>         0.1472
      8 N1          1.5721   -3.1172    1.2702 N.pl3     1 <0>        -0.4692
      9 C8          2.8131   -3.2981    1.8249 C.2       1 <0>         0.0791
     10 C9          2.6896   -3.9325    3.0017 C.2       1 <0>        -0.1784
     11 C10         1.2615   -4.1681    3.2194 C.ar      1 <0>        -0.1046
     12 C11         0.6073   -3.6314    2.0955 C.ar      1 <0>         0.1181
     13 C12        -0.7943   -3.7093    2.0137 C.ar      1 <0>        -0.1088
     14 C13        -1.5122   -4.3083    3.0495 C.ar      1 <0>        -0.1042
     15 C14        -0.8552   -4.8236    4.1512 C.ar      1 <0>        -0.1423
     16 C15         0.5203   -4.7644    4.2401 C.ar      1 <0>        -0.1015
     17 C16        -1.4993   -3.1623    0.8439 C.2       1 <0>         0.5245
     18 O1         -1.9399   -2.0212    0.8736 O.co2     1 <0>        -0.6866
     19 O2         -1.6450   -3.8484   -0.1585 O.co2     1 <0>        -0.6757
     20 C17         3.8172   -4.3364    3.9155 C.3       1 <0>        -0.0339
     21 C18         4.9967   -3.3804    3.7201 C.3       1 <0>        -0.1237
     22 C19         5.9010   -3.9080    2.6089 C.3       1 <0>        -0.1165
     23 C20         5.1377   -3.9853    1.2895 C.3       1 <0>        -0.1105
     24 C21         4.1187   -2.8464    1.2141 C.3       1 <0>        -0.0575
     25 C22         0.9945   -1.6779   -2.7814 C.2       1 <0>         0.5624
     26 O3          0.9140   -0.8460   -1.8988 O.2       1 <0>        -0.5287
     27 N2          0.9710   -1.2942   -4.0732 N.am      1 <0>        -0.8546
     28 H1          1.4364   -6.8408   -1.5433 H         1 <0>         0.1216
     29 H2          1.1684   -6.1628   -3.8930 H         1 <0>         0.1231
     30 H3          0.9612   -3.7823   -4.4751 H         1 <0>         0.1214
     31 H4          1.5081   -5.1438    0.2360 H         1 <0>         0.1254
     32 H5          2.1101   -1.7479   -0.2246 H         1 <0>         0.0991
     33 H6          0.3588   -1.9419    0.0271 H         1 <0>         0.1307
     34 H7         -2.5888   -4.3695    2.9902 H         1 <0>         0.1144
     35 H8         -1.4234   -5.2829    4.9465 H         1 <0>         0.1123
     36 H9          1.0229   -5.1694    5.1060 H         1 <0>         0.1099
     37 H10         3.4801   -4.2911    4.9510 H         1 <0>         0.0631
     38 H11         4.1303   -5.3533    3.6789 H         1 <0>         0.0627
     39 H12         4.6231   -2.3936    3.4467 H         1 <0>         0.0700
     40 H13         5.5645   -3.3097    4.6478 H         1 <0>         0.0592
     41 H14         6.7544   -3.2401    2.4921 H         1 <0>         0.0571
     42 H15         6.2574   -4.9026    2.8770 H         1 <0>         0.0608
     43 H16         5.8389   -3.8998    0.4594 H         1 <0>         0.0636
     44 H17         4.6180   -4.9414    1.2268 H         1 <0>         0.0680
     45 H18         3.9566   -2.5723    0.1717 H         1 <0>         0.0673
     46 H19         4.4970   -1.9835    1.7622 H         1 <0>         0.0846
     47 H20         1.0352   -1.9580   -4.7776 H         1 <0>         0.3978
     48 H21         0.8900   -0.3542   -4.2986 H         1 <0>         0.4017
@<TRIPOS>BOND
     1    1    6 ar
     2    1    2 ar
     3    1   28 1
     4    2    3 ar
     5    2   29 1
     6    3    4 ar
     7    3   30 1
     8    4    5 ar
     9    4   25 1
    10    5    6 ar
    11    5    7 1
    12    6   31 1
    13    7    8 1
    14    7   32 1
    15    7   33 1
    16    8   12 1
    17    8    9 1
    18    9   24 1
    19    9   10 2
    20   10   11 1
    21   10   20 1
    22   11   16 ar
    23   11   12 ar
    24   12   13 ar
    25   13   14 ar
    26   13   17 1
    27   14   15 ar
    28   14   34 1
    29   15   16 ar
    30   15   35 1
    31   16   36 1
    32   17   18 2
    33   17   19 1
    34   20   21 1
    35   20   37 1
    36   20   38 1
    37   21   22 1
    38   21   39 1
    39   21   40 1
    40   22   23 1
    41   22   41 1
    42   22   42 1
    43   23   24 1
    44   23   43 1
    45   23   44 1
    46   24   45 1
    47   24   46 1
    48   25   26 2
    49   25   27 am
    50   27   47 1
    51   27   48 1
@<TRIPOS>MOLECULE
CHEMBL516023
   48    51     0     0     0
SMALL
USER_CHARGES

@<TRIPOS>ATOM
      1 C1         -0.2648    0.2837    0.6935 C.ar      1 <0>        -0.1419
      2 C2          0.7672    1.1973    0.5696 C.ar      1 <0>        -0.0858
      3 C3          2.0663    0.7611    0.3803 C.ar      1 <0>        -0.1139
      4 C4          2.3410   -0.5894    0.3135 C.ar      1 <0>        -0.0398
      5 C5          1.3049   -1.5160    0.4378 C.ar      1 <0>        -0.1421
      6 C6         -0.0037   -1.0692    0.6290 C.ar      1 <0>        -0.0885
      7 C7          1.5919   -2.9646    0.3667 C.2       1 <0>         0.5520
      8 O1          2.7323   -3.3508    0.1997 O.2       1 <0>        -0.5021
      9 N1          0.5890   -3.8570    0.4871 N.am      1 <0>        -0.8604
     10 C8          3.1838    1.7632    0.2464 C.3       1 <0>         0.1161
     11 N2          3.6267    2.1817    1.5786 N.pl3     1 <0>        -0.4586
     12 C9          3.0266    3.1549    2.3359 C.2       1 <0>         0.0774
     13 C10         3.6863    3.2886    3.4977 C.2       1 <0>        -0.1782
     14 C11         4.7862    2.3231    3.4853 C.ar      1 <0>        -0.1072
     15 C12         4.6969    1.6538    2.2512 C.ar      1 <0>         0.1236
     16 C13         5.6349    0.6527    1.9426 C.ar      1 <0>        -0.1186
     17 C14         6.6312    0.3345    2.8662 C.ar      1 <0>        -0.0968
     18 C15         6.7005    0.9957    4.0782 C.ar      1 <0>        -0.1459
     19 C16         5.7939    1.9877    4.3903 C.ar      1 <0>        -0.0977
     20 C17         5.5660   -0.0548    0.6545 C.2       1 <0>         0.5231
     21 O2          5.2553   -1.2378    0.6221 O.co2     1 <0>        -0.6567
     22 O3          5.8194    0.5397   -0.3844 O.co2     1 <0>        -0.6856
     23 C18         3.3581    4.2639    4.5980 C.3       1 <0>        -0.0345
     24 C19         1.8606    4.5804    4.5664 C.3       1 <0>        -0.1232
     25 C20         1.6104    5.7664    3.6381 C.3       1 <0>        -0.1164
     26 C21         2.0486    5.4332    2.2146 C.3       1 <0>        -0.1136
     27 C22         1.8065    3.9489    1.9331 C.3       1 <0>        -0.0571
     28 H1         -1.2762    0.6306    0.8455 H         1 <0>         0.1244
     29 H2          0.5574    2.2555    0.6204 H         1 <0>         0.1231
     30 H3          3.3555   -0.9286    0.1651 H         1 <0>         0.1823
     31 H4         -0.8099   -1.7812    0.7263 H         1 <0>         0.1210
     32 H5         -0.3210   -3.5488    0.6203 H         1 <0>         0.3948
     33 H6          0.7773   -4.8074    0.4404 H         1 <0>         0.4007
     34 H7          4.0180    1.3080   -0.2875 H         1 <0>         0.1447
     35 H8          2.8284    2.6319   -0.3079 H         1 <0>         0.0837
     36 H9          7.3531   -0.4341    2.6327 H         1 <0>         0.1169
     37 H10         7.4758    0.7380    4.7846 H         1 <0>         0.1128
     38 H11         5.8571    2.4969    5.3406 H         1 <0>         0.1098
     39 H12         3.6167    3.8253    5.5617 H         1 <0>         0.0628
     40 H13         3.9269    5.1821    4.4516 H         1 <0>         0.0628
     41 H14         1.3133    3.7114    4.2012 H         1 <0>         0.0692
     42 H15         1.5203    4.8279    5.5719 H         1 <0>         0.0591
     43 H16         0.5473    6.0068    3.6403 H         1 <0>         0.0572
     44 H17         2.1742    6.6281    3.9956 H         1 <0>         0.0611
     45 H18         1.4752    6.0343    1.5088 H         1 <0>         0.0645
     46 H19         3.1095    5.6555    2.1004 H         1 <0>         0.0688
     47 H20         1.6157    3.8072    0.8693 H         1 <0>         0.0684
     48 H21         0.9446    3.6063    2.5057 H         1 <0>         0.0846
@<TRIPOS>BOND
     1    1    6 ar
     2    1    2 ar
     3    1   28 1
     4    2    3 ar
     5    2   29 1
     6    3    4 ar
     7    3   10 1
     8    4    5 ar
     9    4   30 1
    10    5    6 ar
    11    5    7 1
    12    6   31 1
    13    7    8 2
    14    7    9 am
    15    9   32 1
    16    9   33 1
    17   10   11 1
    18   10   34 1
    19   10   35 1
    20   11   15 1
    21   11   12 1
    22   12   27 1
    23   12   13 2
    24   13   14 1
    25   13   23 1
    26   14   19 ar
    27   14   15 ar
    28   15   16 ar
    29   16   17 ar
    30   16   20 1
    31   17   18 ar
    32   17   36 1
    33   18   19 ar
    34   18   37 1
    35   19   38 1
    36   20   21 2
    37   20   22 1
    38   23   24 1
    39   23   39 1
    40   23   40 1
    41   24   25 1
    42   24   41 1
    43   24   42 1
    44   25   26 1
    45   25   43 1
    46   25   44 1
    47   26   27 1
    48   26   45 1
    49   26   46 1
    50   27   47 1
    51   27   48 1
@<TRIPOS>MOLECULE
CHEMBL248144
   55    59     0     0     0
SMALL
USER_CHARGES

@<TRIPOS>ATOM
      1 C1         -0.3924    1.3441   -0.3910 C.ar      1 <0>        -0.1152
      2 C2          0.3233    1.0498   -1.5382 C.ar      1 <0>        -0.1149
      3 C3          1.5615    0.4490   -1.4474 C.ar      1 <0>        -0.0849
      4 C4          2.0929    0.1381   -0.1934 C.ar      1 <0>        -0.0146
      5 C5          1.3649    0.4386    0.9604 C.ar      1 <0>        -0.1123
      6 C6          0.1278    1.0390    0.8544 C.ar      1 <0>        -0.1186
      7 C7          3.4170   -0.5053   -0.0881 C.2       1 <0>         0.0277
      8 C8          3.8788   -1.5797   -0.8305 C.2       1 <0>         0.0701
      9 N1          5.1286   -1.8515   -0.4237 N.2       1 <0>        -0.4222
     10 C9          5.4740   -1.0122    0.5268 C.2       1 <0>         0.2531
     11 N2          4.4390   -0.1528    0.7625 N.pl3     1 <0>        -0.5549
     12 H1          4.4263    0.5695    1.4098 H         1 <0>         0.4188
     13 C10         6.7753   -0.9968    1.2239 C.ar      1 <0>        -0.0105
     14 C11         7.0858    0.0367    2.1081 C.ar      1 <0>        -0.1112
     15 C12         8.3029    0.0459    2.7570 C.ar      1 <0>        -0.1194
     16 C13         9.2224   -0.9664    2.5370 C.ar      1 <0>        -0.1064
     17 C14         8.9325   -1.9970    1.6657 C.ar      1 <0>        -0.1023
     18 C15         7.7074   -2.0267    1.0053 C.ar      1 <0>         0.0068
     19 C16         7.3896   -3.1343    0.0733 C.ar      1 <0>        -0.0154
     20 C17         6.2444   -3.9062    0.2686 C.ar      1 <0>        -0.0880
     21 C18         5.9510   -4.9369   -0.6008 C.ar      1 <0>        -0.0824
     22 C19         6.7896   -5.2079   -1.6662 C.ar      1 <0>        -0.2036
     23 C20         7.9316   -4.4450   -1.8677 C.ar      1 <0>         0.1310
     24 C21         8.2309   -3.4041   -1.0041 C.ar      1 <0>        -0.1372
     25 O1          8.7530   -4.7155   -2.9161 O.3       1 <0>        -0.2852
     26 C22         8.3798   -5.7989   -3.7699 C.3       1 <0>        -0.0031
     27 C23         9.4015   -5.9482   -4.8676 C.2       1 <0>         0.5009
     28 O2         10.3604   -5.1966   -4.9143 O.co2     1 <0>        -0.6721
     29 O3          9.2693   -6.8207   -5.7089 O.co2     1 <0>        -0.6901
     30 C24         3.1274   -2.3001   -1.8850 C.ar      1 <0>        -0.0044
     31 C25         3.7866   -2.7580   -3.0255 C.ar      1 <0>        -0.0823
     32 C26         3.0815   -3.4286   -4.0038 C.ar      1 <0>        -0.1188
     33 C27         1.7236   -3.6471   -3.8550 C.ar      1 <0>        -0.1169
     34 C28         1.0642   -3.1952   -2.7259 C.ar      1 <0>        -0.1243
     35 C29         1.7595   -2.5280   -1.7382 C.ar      1 <0>        -0.1021
     36 H2         -1.3597    1.8183   -0.4679 H         1 <0>         0.1229
     37 H3         -0.0888    1.2908   -2.5070 H         1 <0>         0.1265
     38 H4          2.1187    0.2192   -2.3435 H         1 <0>         0.1275
     39 H5          1.7696    0.2006    1.9331 H         1 <0>         0.1188
     40 H6         -0.4361    1.2719    1.7456 H         1 <0>         0.1237
     41 H7          6.3737    0.8293    2.2840 H         1 <0>         0.1167
     42 H8          8.5405    0.8475    3.4407 H         1 <0>         0.1259
     43 H9         10.1725   -0.9491    3.0502 H         1 <0>         0.1278
     44 H10         9.6546   -2.7826    1.4994 H         1 <0>         0.1345
     45 H11         5.5877   -3.6975    1.1003 H         1 <0>         0.1028
     46 H12         5.0639   -5.5338   -0.4484 H         1 <0>         0.1114
     47 H13         6.5556   -6.0159   -2.3435 H         1 <0>         0.1215
     48 H14         9.1165   -2.8066   -1.1625 H         1 <0>         0.1234
     49 H15         8.3334   -6.7200   -3.1890 H         1 <0>         0.0566
     50 H16         7.4027   -5.5961   -4.2082 H         1 <0>         0.0568
     51 H17         4.8466   -2.5877   -3.1429 H         1 <0>         0.1269
     52 H18         3.5908   -3.7834   -4.8877 H         1 <0>         0.1246
     53 H19         1.1759   -4.1722   -4.6237 H         1 <0>         0.1196
     54 H20         0.0040   -3.3687   -2.6153 H         1 <0>         0.1193
     55 H21         1.2445   -2.1793   -0.8553 H         1 <0>         0.1177
@<TRIPOS>BOND
     1    1    6 ar
     2    1    2 ar
     3    1   36 1
     4    2    3 ar
     5    2   37 1
     6    3    4 ar
     7    3   38 1
     8    4    5 ar
     9    4    7 1
    10    5    6 ar
    11    5   39 1
    12    6   40 1
    13    7   11 1
    14    7    8 2
    15    8    9 1
    16    8   30 1
    17    9   10 2
    18   10   11 1
    19   10   13 1
    20   11   12 1
    21   13   18 ar
    22   13   14 ar
    23   14   15 ar
    24   14   41 1
    25   15   16 ar
    26   15   42 1
    27   16   17 ar
    28   16   43 1
    29   17   18 ar
    30   17   44 1
    31   18   19 1
    32   19   24 ar
    33   19   20 ar
    34   20   21 ar
    35   20   45 1
    36   21   22 ar
    37   21   46 1
    38   22   23 ar
    39   22   47 1
    40   23   24 ar
    41   23   25 1
    42   24   48 1
    43   25   26 1
    44   26   27 1
    45   26   49 1
    46   26   50 1
    47   27   28 2
    48   27   29 1
    49   30   35 ar
    50   30   31 ar
    51   31   32 ar
    52   31   51 1
    53   32   33 ar
    54   32   52 1
    55   33   34 ar
    56   33   53 1
    57   34   35 ar
    58   34   54 1
    59   35   55 1
@<TRIPOS>MOLECULE
CHEMBL248144__1
   56    60     0     0     0
SMALL
USER_CHARGES

@<TRIPOS>ATOM
      1 C1          0.2077    1.7166   -0.4857 C.ar      1 <0>        -0.0841
      2 C2          0.8058    1.2018   -1.6222 C.ar      1 <0>        -0.1141
      3 C3          1.9545    0.4448   -1.5182 C.ar      1 <0>        -0.0712
      4 C4          2.5131    0.1988   -0.2631 C.ar      1 <0>        -0.0672
      5 C5          1.9048    0.7210    0.8793 C.ar      1 <0>        -0.0898
      6 C6          0.7565    1.4764    0.7615 C.ar      1 <0>        -0.1109
      7 C7          3.7442   -0.6123   -0.1442 C.2       1 <0>         0.1172
      8 C8          3.9974   -1.8246   -0.7667 C.2       1 <0>         0.1003
      9 N1          5.2405   -2.2142   -0.3814 N.pl3     1 <0>        -0.4856
     10 C9          5.7355   -1.2890    0.4403 C.cat     1 <0>         0.3877
     11 N2          4.8453   -0.3087    0.5913 N.pl3     1 <0>        -0.4719
     12 H1          4.9628    0.4857    1.1354 H         1 <0>         0.4647
     13 C10         7.0656   -1.3395    1.0797 C.ar      1 <0>        -0.0960
     14 C11         7.6080   -2.5621    1.4756 C.ar      1 <0>        -0.0726
     15 C12         8.8511   -2.6037    2.0720 C.ar      1 <0>        -0.1133
     16 C13         9.5674   -1.4368    2.2815 C.ar      1 <0>        -0.0640
     17 C14         9.0464   -0.2180    1.8963 C.ar      1 <0>        -0.0971
     18 C15         7.7958   -0.1562    1.2880 C.ar      1 <0>         0.0222
     19 C16         7.2350    1.1496    0.8677 C.ar      1 <0>        -0.0669
     20 C17         6.7231    1.3093   -0.4199 C.ar      1 <0>        -0.1803
     21 C18         6.2016    2.5264   -0.8086 C.ar      1 <0>        -0.0687
     22 C19         6.1850    3.5898    0.0749 C.ar      1 <0>        -0.1989
     23 C20         6.6923    3.4396    1.3581 C.ar      1 <0>         0.1548
     24 C21         7.2122    2.2200    1.7594 C.ar      1 <0>        -0.1381
     25 O1          6.6742    4.4880    2.2228 O.3       1 <0>        -0.2707
     26 C22         6.1185    5.7144    1.7440 C.3       1 <0>        -0.0110
     27 C23         6.1834    6.7542    2.8328 C.2       1 <0>         0.4999
     28 O2          6.6614    6.4714    3.9182 O.co2     1 <0>        -0.6673
     29 O3          5.7581    7.8784    2.6282 O.co2     1 <0>        -0.6776
     30 C24         3.0877   -2.5548   -1.6761 C.ar      1 <0>        -0.0605
     31 C25         3.5674   -3.0720   -2.8803 C.ar      1 <0>        -0.0939
     32 C26         2.7138   -3.7525   -3.7239 C.ar      1 <0>        -0.1141
     33 C27         1.3849   -3.9227   -3.3782 C.ar      1 <0>        -0.0875
     34 C28         0.9030   -3.4120   -2.1861 C.ar      1 <0>        -0.1124
     35 C29         1.7475   -2.7345   -1.3309 C.ar      1 <0>        -0.0716
     36 H2         -0.6889    2.3123   -0.5729 H         1 <0>         0.1349
     37 H3          0.3723    1.3926   -2.5928 H         1 <0>         0.1357
     38 H4          2.4202    0.0432   -2.4060 H         1 <0>         0.1296
     39 H5          2.3320    0.5339    1.8534 H         1 <0>         0.1265
     40 H6          0.2848    1.8811    1.6447 H         1 <0>         0.1373
     41 H7          7.0548   -3.4758    1.3155 H         1 <0>         0.1343
     42 H8          9.2683   -3.5518    2.3777 H         1 <0>         0.1438
     43 H9         10.5397   -1.4808    2.7497 H         1 <0>         0.1446
     44 H10         9.6110    0.6875    2.0631 H         1 <0>         0.1485
     45 H11         6.7353    0.4808   -1.1125 H         1 <0>         0.1135
     46 H12         5.8056    2.6486   -1.8059 H         1 <0>         0.1289
     47 H13         5.7764    4.5404   -0.2346 H         1 <0>         0.1389
     48 H14         7.6029    2.1004    2.7591 H         1 <0>         0.1426
     49 H15         6.6866    6.0576    0.8794 H         1 <0>         0.0648
     50 H16         5.0795    5.5544    1.4558 H         1 <0>         0.0630
     51 H17         4.6044   -2.9396   -3.1514 H         1 <0>         0.1264
     52 H18         3.0836   -4.1530   -4.6563 H         1 <0>         0.1352
     53 H19         0.7208   -4.4562   -4.0421 H         1 <0>         0.1339
     54 H20        -0.1355   -3.5476   -1.9224 H         1 <0>         0.1362
     55 H21         1.3711   -2.3403   -0.3985 H         1 <0>         0.1316
     56 H22         5.6911   -3.0278   -0.6572 H         1 <0>         0.4601
@<TRIPOS>BOND
     1    1    6 ar
     2    1    2 ar
     3    1   36 1
     4    2    3 ar
     5    2   37 1
     6    3    4 ar
     7    3   38 1
     8    4    5 ar
     9    4    7 1
    10    5    6 ar
    11    5   39 1
    12    6   40 1
    13    7   11 1
    14    7    8 2
    15    8    9 1
    16    8   30 1
    17    9   10 2
    18    9   56 1
    19   10   11 1
    20   10   13 1
    21   11   12 1
    22   13   18 ar
    23   13   14 ar
    24   14   15 ar
    25   14   41 1
    26   15   16 ar
    27   15   42 1
    28   16   17 ar
    29   16   43 1
    30   17   18 ar
    31   17   44 1
    32   18   19 1
    33   19   24 ar
    34   19   20 ar
    35   20   21 ar
    36   20   45 1
    37   21   22 ar
    38   21   46 1
    39   22   23 ar
    40   22   47 1
    41   23   24 ar
    42   23   25 1
    43   24   48 1
    44   25   26 1
    45   26   27 1
    46   26   49 1
    47   26   50 1
    48   27   28 2
    49   27   29 1
    50   30   35 ar
    51   30   31 ar
    52   31   32 ar
    53   31   51 1
    54   32   33 ar
    55   32   52 1
    56   33   34 ar
    57   33   53 1
    58   34   35 ar
    59   34   54 1
    60   35   55 1
@<TRIPOS>MOLECULE
CHEMBL248145
   56    60     0     0     0
SMALL
USER_CHARGES

@<TRIPOS>ATOM
      1 C1         -0.3920    1.3436   -0.3911 C.ar      1 <0>        -0.1159
      2 C2          0.1280    1.0372    0.8542 C.ar      1 <0>        -0.1187
      3 C3          1.3650    0.4364    0.9598 C.ar      1 <0>        -0.1128
      4 C4          2.0930    0.1368   -0.1941 C.ar      1 <0>        -0.0134
      5 C5          1.5617    0.4485   -1.4479 C.ar      1 <0>        -0.0853
      6 C6          0.3236    1.0496   -1.5384 C.ar      1 <0>        -0.1150
      7 C7          3.4176   -0.5057   -0.0891 C.2       1 <0>         0.0254
      8 C8          3.8802   -1.5794   -0.8321 C.2       1 <0>         0.0698
      9 N1          5.1305   -1.8499   -0.4259 N.2       1 <0>        -0.4156
     10 C9          5.4754   -1.0106    0.5247 C.2       1 <0>         0.2527
     11 N2          4.4393   -0.1529    0.7617 N.pl3     1 <0>        -0.5559
     12 H1          4.4258    0.5687    1.4098 H         1 <0>         0.4180
     13 C10         6.7769   -0.9943    1.2215 C.ar      1 <0>        -0.0118
     14 C11         7.0867    0.0392    2.1059 C.ar      1 <0>        -0.1117
     15 C12         8.3039    0.0493    2.7546 C.ar      1 <0>        -0.1220
     16 C13         9.2242   -0.9622    2.5341 C.ar      1 <0>        -0.1075
     17 C14         8.9351   -1.9925    1.6622 C.ar      1 <0>        -0.1045
     18 C15         7.7097   -2.0234    1.0024 C.ar      1 <0>         0.0096
     19 C16         7.3925   -3.1312    0.0705 C.ar      1 <0>        -0.0053
     20 C17         6.2482   -3.9044    0.2669 C.ar      1 <0>        -0.1119
     21 C18         5.9543   -4.9358   -0.6019 C.ar      1 <0>        -0.0725
     22 C19         6.7908   -5.2065   -1.6684 C.ar      1 <0>        -0.1950
     23 C20         7.9332   -4.4416   -1.8723 C.ar      1 <0>         0.2226
     24 C21         8.2331   -3.3996   -1.0073 C.ar      1 <0>        -0.1834
     25 N3          8.7761   -4.7185   -2.9513 N.pl3     1 <0>        -0.7220
     26 C22         8.4559   -5.8153   -3.8682 C.3       1 <0>         0.0584
     27 C23         9.5152   -5.9025   -4.9365 C.2       1 <0>         0.4896
     28 O1         10.4510   -5.1209   -4.9323 O.co2     1 <0>        -0.6913
     29 O2          9.4366   -6.7546   -5.8050 O.co2     1 <0>        -0.6937
     30 C24         3.1289   -2.3006   -1.8860 C.ar      1 <0>        -0.0032
     31 C25         3.7878   -2.7582   -3.0268 C.ar      1 <0>        -0.0805
     32 C26         3.0829   -3.4297   -4.0046 C.ar      1 <0>        -0.1187
     33 C27         1.7252   -3.6493   -3.8550 C.ar      1 <0>        -0.1176
     34 C28         1.0660   -3.1974   -2.7258 C.ar      1 <0>        -0.1248
     35 C29         1.7613   -2.5297   -1.7385 C.ar      1 <0>        -0.1024
     36 H2         -1.3629    1.8103   -0.4681 H         1 <0>         0.1226
     37 H3         -0.4360    1.2695    1.7455 H         1 <0>         0.1234
     38 H4          1.7699    0.1986    1.9324 H         1 <0>         0.1187
     39 H5          2.1192    0.2199   -2.3442 H         1 <0>         0.1274
     40 H6         -0.0885    1.2911   -2.5071 H         1 <0>         0.1262
     41 H7          6.3740    0.8312    2.2822 H         1 <0>         0.1157
     42 H8          8.5410    0.8509    3.4384 H         1 <0>         0.1247
     43 H9         10.1743   -0.9444    3.0473 H         1 <0>         0.1263
     44 H10         9.6582   -2.7772    1.4950 H         1 <0>         0.1330
     45 H11         5.5923   -3.6962    1.0993 H         1 <0>         0.0963
     46 H12         5.0680   -5.5334   -0.4477 H         1 <0>         0.1060
     47 H13         6.5563   -6.0150   -2.3450 H         1 <0>         0.1129
     48 H14         9.1177   -2.8009   -1.1666 H         1 <0>         0.1113
     49 H15         9.5733   -4.1846   -3.0934 H         1 <0>         0.4056
     50 H16         8.4204   -6.7534   -3.3143 H         1 <0>         0.0550
     51 H17         7.4868   -5.6302   -4.3318 H         1 <0>         0.0552
     52 H18         4.8476   -2.5870   -3.1448 H         1 <0>         0.1272
     53 H19         3.5919   -3.7842   -4.8887 H         1 <0>         0.1239
     54 H20         1.1776   -4.1753   -4.6230 H         1 <0>         0.1190
     55 H21         0.0058   -3.3712   -2.6149 H         1 <0>         0.1187
     56 H22         1.2465   -2.1813   -0.8553 H         1 <0>         0.1172
@<TRIPOS>BOND
     1    1    6 ar
     2    1    2 ar
     3    1   36 1
     4    2    3 ar
     5    2   37 1
     6    3    4 ar
     7    3   38 1
     8    4    5 ar
     9    4    7 1
    10    5    6 ar
    11    5   39 1
    12    6   40 1
    13    7   11 1
    14    7    8 2
    15    8    9 1
    16    8   30 1
    17    9   10 2
    18   10   11 1
    19   10   13 1
    20   11   12 1
    21   13   18 ar
    22   13   14 ar
    23   14   15 ar
    24   14   41 1
    25   15   16 ar
    26   15   42 1
    27   16   17 ar
    28   16   43 1
    29   17   18 ar
    30   17   44 1
    31   18   19 1
    32   19   24 ar
    33   19   20 ar
    34   20   21 ar
    35   20   45 1
    36   21   22 ar
    37   21   46 1
    38   22   23 ar
    39   22   47 1
    40   23   24 ar
    41   23   25 1
    42   24   48 1
    43   25   26 1
    44   25   49 1
    45   26   27 1
    46   26   50 1
    47   26   51 1
    48   27   28 2
    49   27   29 1
    50   30   35 ar
    51   30   31 ar
    52   31   32 ar
    53   31   52 1
    54   32   33 ar
    55   32   53 1
    56   33   34 ar
    57   33   54 1
    58   34   35 ar
    59   34   55 1
    60   35   56 1
@<TRIPOS>MOLECULE
CHEMBL248145__1
   57    61     0     0     0
SMALL
USER_CHARGES

@<TRIPOS>ATOM
      1 C1          0.2090    1.7184   -0.4857 C.ar      1 <0>        -0.0848
      2 C2          0.7575    1.4777    0.7615 C.ar      1 <0>        -0.1113
      3 C3          1.9053    0.7215    0.8793 C.ar      1 <0>        -0.0897
      4 C4          2.5133    0.1989   -0.2631 C.ar      1 <0>        -0.0652
      5 C5          1.9549    0.4454   -1.5181 C.ar      1 <0>        -0.0709
      6 C6          0.8068    1.2031   -1.6222 C.ar      1 <0>        -0.1141
      7 C7          3.7443   -0.6123   -0.1442 C.2       1 <0>         0.1174
      8 C8          3.9974   -1.8247   -0.7666 C.2       1 <0>         0.0984
      9 N1          5.2403   -2.2146   -0.3811 N.pl3     1 <0>        -0.4868
     10 C9          5.7353   -1.2895    0.4409 C.cat     1 <0>         0.3898
     11 N2          4.8454   -0.3087    0.5913 N.pl3     1 <0>        -0.4685
     12 H1          4.9631    0.4857    1.1354 H         1 <0>         0.4655
     13 C10         7.0652   -1.3404    1.0806 C.ar      1 <0>        -0.0975
     14 C11         7.6073   -2.5631    1.4765 C.ar      1 <0>        -0.0733
     15 C12         8.8502   -2.6050    2.0732 C.ar      1 <0>        -0.1160
     16 C13         9.5667   -1.4383    2.2831 C.ar      1 <0>        -0.0653
     17 C14         9.0458   -0.2193    1.8983 C.ar      1 <0>        -0.0996
     18 C15         7.7956   -0.1572    1.2892 C.ar      1 <0>         0.0257
     19 C16         7.2353    1.1487    0.8685 C.ar      1 <0>        -0.0544
     20 C17         6.7241    1.3082   -0.4195 C.ar      1 <0>        -0.2080
     21 C18         6.2023    2.5249   -0.8096 C.ar      1 <0>        -0.0585
     22 C19         6.1840    3.5889    0.0727 C.ar      1 <0>        -0.1906
     23 C20         6.6915    3.4398    1.3579 C.ar      1 <0>         0.2405
     24 C21         7.2125    2.2188    1.7600 C.ar      1 <0>        -0.1873
     25 N3          6.6715    4.5176    2.2463 N.pl3     1 <0>        -0.6998
     26 C22         6.1156    5.8053    1.8234 C.3       1 <0>         0.0456
     27 C23         6.2128    6.7916    2.9586 C.2       1 <0>         0.4887
     28 O1          6.7011    6.4505    4.0224 O.co2     1 <0>        -0.6877
     29 O2          5.8030    7.9307    2.8133 O.co2     1 <0>        -0.6812
     30 C24         3.0880   -2.5544   -1.6767 C.ar      1 <0>        -0.0594
     31 C25         3.5681   -3.0715   -2.8808 C.ar      1 <0>        -0.0940
     32 C26         2.7147   -3.7511   -3.7252 C.ar      1 <0>        -0.1141
     33 C27         1.3854   -3.9204   -3.3806 C.ar      1 <0>        -0.0882
     34 C28         0.9030   -3.4098   -2.1886 C.ar      1 <0>        -0.1126
     35 C29         1.7474   -2.7336   -1.3324 C.ar      1 <0>        -0.0721
     36 H2         -0.6922    2.3073   -0.5722 H         1 <0>         0.1343
     37 H3          0.2862    1.8830    1.6447 H         1 <0>         0.1364
     38 H4          2.3327    0.5346    1.8534 H         1 <0>         0.1258
     39 H5          2.4208    0.0440   -2.4060 H         1 <0>         0.1296
     40 H6          0.3736    1.3946   -2.5928 H         1 <0>         0.1353
     41 H7          7.0539   -3.4767    1.3162 H         1 <0>         0.1333
     42 H8          9.2671   -3.5532    2.3790 H         1 <0>         0.1426
     43 H9         10.5389   -1.4826    2.7512 H         1 <0>         0.1429
     44 H10         9.6104    0.6861    2.0656 H         1 <0>         0.1467
     45 H11         6.7370    0.4794   -1.1119 H         1 <0>         0.1065
     46 H12         5.8074    2.6463   -1.8074 H         1 <0>         0.1229
     47 H13         5.7745    4.5388   -0.2377 H         1 <0>         0.1298
     48 H14         7.6033    2.0994    2.7597 H         1 <0>         0.1296
     49 H15         7.0257    4.4133    3.1433 H         1 <0>         0.4134
     50 H16         6.6771    6.1799    0.9675 H         1 <0>         0.0649
     51 H17         5.0702    5.6754    1.5434 H         1 <0>         0.0637
     52 H18         4.6054   -2.9398   -3.1510 H         1 <0>         0.1264
     53 H19         3.0848   -4.1515   -4.6574 H         1 <0>         0.1349
     54 H20         0.7214   -4.4532   -4.0451 H         1 <0>         0.1336
     55 H21        -0.1358   -3.5447   -1.9257 H         1 <0>         0.1358
     56 H22         1.3709   -2.3400   -0.3998 H         1 <0>         0.1314
     57 H23         5.6908   -3.0281   -0.6569 H         1 <0>         0.4595
@<TRIPOS>BOND
     1    1    6 ar
     2    1    2 ar
     3    1   36 1
     4    2    3 ar
     5    2   37 1
     6    3    4 ar
     7    3   38 1
     8    4    5 ar
     9    4    7 1
    10    5    6 ar
    11    5   39 1
    12    6   40 1
    13    7   11 1
    14    7    8 2
    15    8    9 1
    16    8   30 1
    17    9   10 2
    18    9   57 1
    19   10   11 1
    20   10   13 1
    21   11   12 1
    22   13   18 ar
    23   13   14 ar
    24   14   15 ar
    25   14   41 1
    26   15   16 ar
    27   15   42 1
    28   16   17 ar
    29   16   43 1
    30   17   18 ar
    31   17   44 1
    32   18   19 1
    33   19   24 ar
    34   19   20 ar
    35   20   21 ar
    36   20   45 1
    37   21   22 ar
    38   21   46 1
    39   22   23 ar
    40   22   47 1
    41   23   24 ar
    42   23   25 1
    43   24   48 1
    44   25   26 1
    45   25   49 1
    46   26   27 1
    47   26   50 1
    48   26   51 1
    49   27   28 2
    50   27   29 1
    51   30   35 ar
    52   30   31 ar
    53   31   32 ar
    54   31   52 1
    55   32   33 ar
    56   32   53 1
    57   33   34 ar
    58   33   54 1
    59   34   35 ar
    60   34   55 1
    61   35   56 1
@<TRIPOS>MOLECULE
CHEMBL396698
   58    62     0     0     0
SMALL
USER_CHARGES

@<TRIPOS>ATOM
      1 C1          0.2762    1.0179   -0.1424 C.3       1 <0>         0.0645
      2 N1          0.4228   -0.4311    0.0160 N.pl3     1 <0>        -0.4449
      3 C2          0.5225   -1.3574   -0.9962 C.2       1 <0>         0.0213
      4 C3          0.6459   -2.5940   -0.3842 C.2       1 <0>         0.0710
      5 N2          0.6192   -2.3982    0.9433 N.2       1 <0>        -0.4331
      6 C4          0.4920   -1.1149    1.1962 C.2       1 <0>         0.2584
      7 C5          0.4307   -0.5094    2.5413 C.ar      1 <0>        -0.0094
      8 C6          1.2173    0.6013    2.8476 C.ar      1 <0>        -0.1027
      9 C7          1.1559    1.1634    4.1057 C.ar      1 <0>        -0.1216
     10 C8          0.3163    0.6318    5.0707 C.ar      1 <0>        -0.1040
     11 C9         -0.4692   -0.4668    4.7856 C.ar      1 <0>        -0.1045
     12 C10        -0.4252   -1.0449    3.5200 C.ar      1 <0>         0.0051
     13 C11        -1.2710   -2.2211    3.2078 C.ar      1 <0>        -0.0074
     14 C12        -2.1500   -2.1831    2.1255 C.ar      1 <0>        -0.1416
     15 C13        -2.9365   -3.2798    1.8371 C.ar      1 <0>        -0.0765
     16 C14        -2.8562   -4.4177    2.6184 C.ar      1 <0>        -0.2085
     17 C15        -1.9845   -4.4639    3.6976 C.ar      1 <0>         0.1436
     18 C16        -1.1865   -3.3703    3.9911 C.ar      1 <0>        -0.1344
     19 O1         -1.9094   -5.5845    4.4628 O.3       1 <0>        -0.2815
     20 C17        -2.7562   -6.6765    4.0989 C.3       1 <0>        -0.0052
     21 C18        -2.5369   -7.8221    5.0532 C.2       1 <0>         0.5017
     22 O2         -1.7301   -7.7134    5.9608 O.co2     1 <0>        -0.6710
     23 O3         -3.1661   -8.8575    4.9176 O.co2     1 <0>        -0.6889
     24 C19         0.7823   -3.8992   -1.0721 C.ar      1 <0>        -0.0019
     25 C20         0.1206   -4.1273   -2.2783 C.ar      1 <0>        -0.1018
     26 C21         0.2519   -5.3447   -2.9144 C.ar      1 <0>        -0.1222
     27 C22         1.0379   -6.3379   -2.3580 C.ar      1 <0>        -0.1184
     28 C23         1.6964   -6.1176   -1.1614 C.ar      1 <0>        -0.1194
     29 C24         1.5775   -4.9023   -0.5188 C.ar      1 <0>        -0.0888
     30 C25         0.5017   -1.0871   -2.4470 C.ar      1 <0>        -0.0081
     31 C26        -0.4405   -0.2062   -2.9833 C.ar      1 <0>        -0.1166
     32 C27        -0.4541    0.0416   -4.3400 C.ar      1 <0>        -0.1170
     33 C28         0.4626   -0.5801   -5.1695 C.ar      1 <0>        -0.1171
     34 C29         1.3988   -1.4539   -4.6451 C.ar      1 <0>        -0.1144
     35 C30         1.4278   -1.7067   -3.2895 C.ar      1 <0>        -0.0878
     36 H1          1.2565    1.4908   -0.0840 H         1 <0>         0.0784
     37 H2         -0.1741    1.2338   -1.1113 H         1 <0>         0.0905
     38 H3         -0.3628    1.4072    0.6501 H         1 <0>         0.0897
     39 H4          1.8744    1.0207    2.1001 H         1 <0>         0.1212
     40 H5          1.7663    2.0229    4.3399 H         1 <0>         0.1263
     41 H6          0.2763    1.0796    6.0527 H         1 <0>         0.1280
     42 H7         -1.1213   -0.8755    5.5434 H         1 <0>         0.1338
     43 H8         -2.2153   -1.2956    1.5136 H         1 <0>         0.1035
     44 H9         -3.6169   -3.2489    0.9990 H         1 <0>         0.1147
     45 H10        -3.4739   -5.2733    2.3884 H         1 <0>         0.1251
     46 H11        -0.5044   -3.4066    4.8276 H         1 <0>         0.1281
     47 H12        -3.7981   -6.3595    4.1452 H         1 <0>         0.0576
     48 H13        -2.5190   -6.9980    3.0847 H         1 <0>         0.0583
     49 H14        -0.4936   -3.3528   -2.7134 H         1 <0>         0.1191
     50 H15        -0.2603   -5.5227   -3.8484 H         1 <0>         0.1201
     51 H16         1.1377   -7.2891   -2.8596 H         1 <0>         0.1199
     52 H17         2.3081   -6.8970   -0.7315 H         1 <0>         0.1234
     53 H18         2.0956   -4.7299    0.4130 H         1 <0>         0.1261
     54 H19        -1.1568    0.2795   -2.3371 H         1 <0>         0.1201
     55 H20        -1.1822    0.7222   -4.7561 H         1 <0>         0.1237
     56 H21         0.4472   -0.3827   -6.2312 H         1 <0>         0.1226
     57 H22         2.1113   -1.9357   -5.2983 H         1 <0>         0.1258
     58 H23         2.1619   -2.3855   -2.8811 H         1 <0>         0.1267
@<TRIPOS>BOND
     1    1    2 1
     2    1   36 1
     3    1   37 1
     4    1   38 1
     5    2    6 1
     6    2    3 1
     7    3    4 2
     8    3   30 1
     9    4    5 1
    10    4   24 1
    11    5    6 2
    12    6    7 1
    13    7   12 ar
    14    7    8 ar
    15    8    9 ar
    16    8   39 1
    17    9   10 ar
    18    9   40 1
    19   10   11 ar
    20   10   41 1
    21   11   12 ar
    22   11   42 1
    23   12   13 1
    24   13   18 ar
    25   13   14 ar
    26   14   15 ar
    27   14   43 1
    28   15   16 ar
    29   15   44 1
    30   16   17 ar
    31   16   45 1
    32   17   18 ar
    33   17   19 1
    34   18   46 1
    35   19   20 1
    36   20   21 1
    37   20   47 1
    38   20   48 1
    39   21   22 2
    40   21   23 1
    41   24   29 ar
    42   24   25 ar
    43   25   26 ar
    44   25   49 1
    45   26   27 ar
    46   26   50 1
    47   27   28 ar
    48   27   51 1
    49   28   29 ar
    50   28   52 1
    51   29   53 1
    52   30   35 ar
    53   30   31 ar
    54   31   32 ar
    55   31   54 1
    56   32   33 ar
    57   32   55 1
    58   33   34 ar
    59   33   56 1
    60   34   35 ar
    61   34   57 1
    62   35   58 1
@<TRIPOS>MOLECULE
CHEMBL396698__1
   59    63     0     0     0
SMALL
USER_CHARGES

@<TRIPOS>ATOM
      1 C1          0.2606    1.0190   -0.1418 C.3       1 <0>         0.0502
      2 N1          0.4143   -0.4293    0.0156 N.pl3     1 <0>        -0.4000
      3 C2          0.5155   -1.3547   -0.9972 C.2       1 <0>         0.1098
      4 C3          0.6463   -2.5910   -0.3861 C.2       1 <0>         0.1023
      5 N2          0.6225   -2.3959    0.9416 N.pl3     1 <0>        -0.4561
      6 C4          0.4900   -1.1133    1.1954 C.cat     1 <0>         0.3756
      7 C5          0.4298   -0.5086    2.5409 C.ar      1 <0>        -0.0942
      8 C6          1.2164    0.6021    2.8472 C.ar      1 <0>        -0.0721
      9 C7          1.1558    1.1634    4.1057 C.ar      1 <0>        -0.1147
     10 C8          0.3172    0.6310    5.0711 C.ar      1 <0>        -0.0661
     11 C9         -0.4683   -0.4676    4.7860 C.ar      1 <0>        -0.0977
     12 C10        -0.4252   -1.0449    3.5200 C.ar      1 <0>         0.0220
     13 C11        -1.2710   -2.2211    3.2078 C.ar      1 <0>        -0.0619
     14 C12        -2.1500   -2.1831    2.1255 C.ar      1 <0>        -0.1686
     15 C13        -2.9365   -3.2798    1.8371 C.ar      1 <0>        -0.0694
     16 C14        -2.8562   -4.4177    2.6184 C.ar      1 <0>        -0.1995
     17 C15        -1.9845   -4.4639    3.6976 C.ar      1 <0>         0.1534
     18 C16        -1.1865   -3.3703    3.9911 C.ar      1 <0>        -0.1434
     19 O1         -1.9094   -5.5845    4.4628 O.3       1 <0>        -0.2724
     20 C17        -2.7562   -6.6765    4.0989 C.3       1 <0>        -0.0105
     21 C18        -2.5369   -7.8221    5.0532 C.2       1 <0>         0.5002
     22 O2         -1.7301   -7.7134    5.9608 O.co2     1 <0>        -0.6679
     23 O3         -3.1661   -8.8575    4.9176 O.co2     1 <0>        -0.6782
     24 C19         0.7868   -3.8953   -1.0749 C.ar      1 <0>        -0.0648
     25 C20        -0.0316   -4.2053   -2.1606 C.ar      1 <0>        -0.0728
     26 C21         0.1043   -5.4214   -2.7984 C.ar      1 <0>        -0.1130
     27 C22         1.0500   -6.3322   -2.3626 C.ar      1 <0>        -0.0858
     28 C23         1.8645   -6.0305   -1.2858 C.ar      1 <0>        -0.1103
     29 C24         1.7419   -4.8154   -0.6436 C.ar      1 <0>        -0.0932
     30 C25         0.4893   -1.0840   -2.4478 C.ar      1 <0>        -0.0559
     31 C26        -0.4585   -0.2072   -2.9811 C.ar      1 <0>        -0.0986
     32 C27        -0.4771    0.0410   -4.3377 C.ar      1 <0>        -0.1129
     33 C28         0.4402   -0.5761   -5.1700 C.ar      1 <0>        -0.0884
     34 C29         1.3819   -1.4458   -4.6486 C.ar      1 <0>        -0.1113
     35 C30         1.4159   -1.6990   -3.2932 C.ar      1 <0>        -0.0722
     36 H1          1.2387    1.4966   -0.0846 H         1 <0>         0.1089
     37 H2         -0.1923    1.2333   -1.1098 H         1 <0>         0.1178
     38 H3         -0.3791    1.4049    0.6520 H         1 <0>         0.1148
     39 H4          1.8727    1.0220    2.0994 H         1 <0>         0.1339
     40 H5          1.7663    2.0229    4.3400 H         1 <0>         0.1427
     41 H6          0.2780    1.0782    6.0534 H         1 <0>         0.1434
     42 H7         -1.1196   -0.8769    5.5441 H         1 <0>         0.1472
     43 H8         -2.2153   -1.2956    1.5136 H         1 <0>         0.1120
     44 H9         -3.6169   -3.2489    0.9990 H         1 <0>         0.1269
     45 H10        -3.4739   -5.2733    2.3884 H         1 <0>         0.1370
     46 H11        -0.5044   -3.4066    4.8276 H         1 <0>         0.1400
     47 H12        -3.7981   -6.3595    4.1452 H         1 <0>         0.0641
     48 H13        -2.5190   -6.9980    3.0847 H         1 <0>         0.0621
     49 H14        -0.7705   -3.4951   -2.5014 H         1 <0>         0.1291
     50 H15        -0.5292   -5.6627   -3.6391 H         1 <0>         0.1355
     51 H16         1.1527   -7.2827   -2.8649 H         1 <0>         0.1348
     52 H17         2.6005   -6.7459   -0.9497 H         1 <0>         0.1368
     53 H18         2.3813   -4.5791    0.1941 H         1 <0>         0.1256
     54 H19        -1.1752    0.2748   -2.3327 H         1 <0>         0.1268
     55 H20        -1.2095    0.7184   -4.7514 H         1 <0>         0.1353
     56 H21         0.4208   -0.3783   -6.2315 H         1 <0>         0.1340
     57 H22         2.0948   -1.9239   -5.3041 H         1 <0>         0.1361
     58 H23         2.1543   -2.3745   -2.8871 H         1 <0>         0.1314
     59 H24         0.6953   -3.0941    1.6110 H         1 <0>         0.4620
@<TRIPOS>BOND
     1    1    2 1
     2    1   36 1
     3    1   37 1
     4    1   38 1
     5    2    6 1
     6    2    3 1
     7    3    4 2
     8    3   30 1
     9    4    5 1
    10    4   24 1
    11    5    6 2
    12    5   59 1
    13    6    7 1
    14    7   12 ar
    15    7    8 ar
    16    8    9 ar
    17    8   39 1
    18    9   10 ar
    19    9   40 1
    20   10   11 ar
    21   10   41 1
    22   11   12 ar
    23   11   42 1
    24   12   13 1
    25   13   18 ar
    26   13   14 ar
    27   14   15 ar
    28   14   43 1
    29   15   16 ar
    30   15   44 1
    31   16   17 ar
    32   16   45 1
    33   17   18 ar
    34   17   19 1
    35   18   46 1
    36   19   20 1
    37   20   21 1
    38   20   47 1
    39   20   48 1
    40   21   22 2
    41   21   23 1
    42   24   29 ar
    43   24   25 ar
    44   25   26 ar
    45   25   49 1
    46   26   27 ar
    47   26   50 1
    48   27   28 ar
    49   27   51 1
    50   28   29 ar
    51   28   52 1
    52   29   53 1
    53   30   35 ar
    54   30   31 ar
    55   31   32 ar
    56   31   54 1
    57   32   33 ar
    58   32   55 1
    59   33   34 ar
    60   33   56 1
    61   34   35 ar
    62   34   57 1
    63   35   58 1
@<TRIPOS>MOLECULE
CHEMBL126078
   54    58     0     0     0
SMALL
USER_CHARGES

@<TRIPOS>ATOM
      1 C1          0.2315   -4.4673    1.5402 C.ar      1 <0>        -0.1151
      2 C2          0.8183   -4.6183    0.2965 C.ar      1 <0>        -0.1215
      3 C3          1.9212   -3.8627   -0.0454 C.ar      1 <0>        -0.0898
      4 C4          2.4437   -2.9451    0.8654 C.ar      1 <0>        -0.0058
      5 C5          1.8476   -2.7970    2.1173 C.ar      1 <0>        -0.0953
      6 C6          0.7454   -3.5585    2.4479 C.ar      1 <0>        -0.1189
      7 C7          3.6281   -2.1310    0.5045 C.2       1 <0>         0.0408
      8 C8          3.8137   -0.7878    0.7746 C.2       1 <0>         0.0162
      9 O1          5.0233   -0.4551    0.2726 O.3       1 <0>        -0.1646
     10 C9          5.5573   -1.5564   -0.2842 C.2       1 <0>         0.2466
     11 N1          4.7265   -2.5622   -0.1420 N.2       1 <0>        -0.4555
     12 C10         6.8737   -1.6245   -0.9469 C.ar      1 <0>        -0.0135
     13 C11         7.7524   -2.6693   -0.6575 C.ar      1 <0>        -0.0709
     14 C12         8.9815   -2.7282   -1.2804 C.ar      1 <0>        -0.1234
     15 C13         9.3519   -1.7550   -2.1940 C.ar      1 <0>        -0.0951
     16 C14         8.4961   -0.7140   -2.4924 C.ar      1 <0>        -0.1058
     17 C15         7.2488   -0.6400   -1.8788 C.ar      1 <0>        -0.0005
     18 C16         6.3242    0.4722   -2.2011 C.ar      1 <0>        -0.0250
     19 C17         5.0326    0.2000   -2.6520 C.ar      1 <0>        -0.1525
     20 C18         4.1735    1.2377   -2.9510 C.ar      1 <0>        -0.0755
     21 C19         4.5892    2.5484   -2.8055 C.ar      1 <0>        -0.2074
     22 C20         5.8729    2.8283   -2.3578 C.ar      1 <0>         0.1438
     23 C21         6.7403    1.7933   -2.0493 C.ar      1 <0>        -0.1377
     24 O2          6.2770    4.1182   -2.2167 O.3       1 <0>        -0.2798
     25 C22         5.3288    5.1349   -2.5473 C.3       1 <0>        -0.0066
     26 C23         5.9499    6.4907   -2.3306 C.2       1 <0>         0.5016
     27 O3          7.0982    6.5783   -1.9301 O.co2     1 <0>        -0.6705
     28 O4          5.3042    7.5001   -2.5556 O.co2     1 <0>        -0.6871
     29 C24         2.8737    0.1079    1.4739 C.ar      1 <0>        -0.0201
     30 C25         3.3315    0.9512    2.4898 C.ar      1 <0>        -0.0907
     31 C26         2.4467    1.7866    3.1389 C.ar      1 <0>        -0.1175
     32 C27         1.1085    1.7910    2.7865 C.ar      1 <0>        -0.1041
     33 C28         0.6479    0.9586    1.7814 C.ar      1 <0>        -0.1183
     34 C29         1.5219    0.1218    1.1198 C.ar      1 <0>        -0.0805
     35 H1         -0.6340   -5.0579    1.8018 H         1 <0>         0.1222
     36 H2          0.4127   -5.3293   -0.4080 H         1 <0>         0.1244
     37 H3          2.3789   -3.9820   -1.0163 H         1 <0>         0.1258
     38 H4          2.2481   -2.0882    2.8269 H         1 <0>         0.1223
     39 H5          0.2830   -3.4450    3.4173 H         1 <0>         0.1245
     40 H6          7.4702   -3.4312    0.0541 H         1 <0>         0.1326
     41 H7          9.6596   -3.5378   -1.0541 H         1 <0>         0.1316
     42 H8         10.3169   -1.8111   -2.6758 H         1 <0>         0.1312
     43 H9          8.7924    0.0410   -3.2056 H         1 <0>         0.1362
     44 H10         4.7052   -0.8227   -2.7674 H         1 <0>         0.1129
     45 H11         3.1738    1.0255   -3.3000 H         1 <0>         0.1200
     46 H12         3.9130    3.3568   -3.0412 H         1 <0>         0.1287
     47 H13         7.7379    2.0097   -1.6966 H         1 <0>         0.1322
     48 H14         5.0355    5.0324   -3.5921 H         1 <0>         0.0595
     49 H15         4.4494    5.0323   -1.9114 H         1 <0>         0.0588
     50 H16         4.3756    0.9486    2.7661 H         1 <0>         0.1265
     51 H17         2.7990    2.4386    3.9245 H         1 <0>         0.1294
     52 H18         0.4201    2.4470    3.2986 H         1 <0>         0.1267
     53 H19        -0.3979    0.9674    1.5117 H         1 <0>         0.1288
     54 H20         1.1618   -0.5241    0.3326 H         1 <0>         0.1254
@<TRIPOS>BOND
     1    1    6 ar
     2    1    2 ar
     3    1   35 1
     4    2    3 ar
     5    2   36 1
     6    3    4 ar
     7    3   37 1
     8    4    5 ar
     9    4    7 1
    10    5    6 ar
    11    5   38 1
    12    6   39 1
    13    7   11 1
    14    7    8 2
    15    8    9 1
    16    8   29 1
    17    9   10 1
    18   10   11 2
    19   10   12 1
    20   12   17 ar
    21   12   13 ar
    22   13   14 ar
    23   13   40 1
    24   14   15 ar
    25   14   41 1
    26   15   16 ar
    27   15   42 1
    28   16   17 ar
    29   16   43 1
    30   17   18 1
    31   18   23 ar
    32   18   19 ar
    33   19   20 ar
    34   19   44 1
    35   20   21 ar
    36   20   45 1
    37   21   22 ar
    38   21   46 1
    39   22   23 ar
    40   22   24 1
    41   23   47 1
    42   24   25 1
    43   25   26 1
    44   25   48 1
    45   25   49 1
    46   26   27 2
    47   26   28 1
    48   29   34 ar
    49   29   30 ar
    50   30   31 ar
    51   30   50 1
    52   31   32 ar
    53   31   51 1
    54   32   33 ar
    55   32   52 1
    56   33   34 ar
    57   33   53 1
    58   34   54 1
@<TRIPOS>MOLECULE
CHEMBL212860
   45    47     0     0     0
SMALL
USER_CHARGES

@<TRIPOS>ATOM
      1 C1         -0.0167    1.3780    0.0096 C.ar      1 <0>        -0.1130
      2 C2          1.1709    2.0861    0.0021 C.ar      1 <0>        -0.1098
      3 C3          2.3773    1.4123   -0.0135 C.ar      1 <0>        -0.1114
      4 C4          2.3967    0.0287   -0.0210 C.ar      1 <0>        -0.0315
      5 C5          1.2083   -0.6792   -0.0130 C.ar      1 <0>        -0.0769
      6 C6          0.0021   -0.0041    0.0020 C.ar      1 <0>        -0.0813
      7 C7          1.2286   -2.1860   -0.0218 C.3       1 <0>         0.0994
      8 O1         -0.1121   -2.6805   -0.0110 O.3       1 <0>        -0.3021
      9 C8         -0.2722   -4.0310   -0.0170 C.ar      1 <0>         0.1125
     10 C9          0.8369   -4.8615   -0.0272 C.ar      1 <0>        -0.2194
     11 C10         0.6725   -6.2341   -0.0328 C.ar      1 <0>        -0.0828
     12 C11        -0.5971   -6.7814   -0.0288 C.ar      1 <0>        -0.1425
     13 C12        -1.7078   -5.9584   -0.0192 C.ar      1 <0>         0.0043
     14 C13        -1.5500   -4.5818   -0.0072 C.ar      1 <0>         0.0725
     15 O2         -2.6416   -3.7708    0.0083 O.3       1 <0>        -0.3222
     16 C14        -3.1751   -3.3767   -1.2574 C.3       1 <0>         0.0895
     17 C15        -4.3723   -2.4869   -1.0429 C.ar      1 <0>        -0.0597
     18 C16        -4.7802   -2.1743    0.2404 C.ar      1 <0>        -0.0889
     19 C17        -5.8782   -1.3581    0.4373 C.ar      1 <0>        -0.1186
     20 C18        -6.5692   -0.8539   -0.6490 C.ar      1 <0>        -0.1194
     21 C19        -6.1624   -1.1658   -1.9323 C.ar      1 <0>        -0.1119
     22 C20        -5.0598   -1.9782   -2.1301 C.ar      1 <0>        -0.0319
     23 Cl1        -4.5442   -2.3650   -3.7420 Cl        1 <0>        -0.0625
     24 C21        -3.0902   -6.5584   -0.0154 C.3       1 <0>        -0.1612
     25 C22        -3.6073   -6.6376   -1.4287 C.2       1 <0>         0.5016
     26 O3         -2.9172   -6.2434   -2.3533 O.co2     1 <0>        -0.6832
     27 O4         -4.7157   -7.0959   -1.6475 O.co2     1 <0>        -0.6956
     28 Cl2         3.9119   -0.8184   -0.0411 Cl        1 <0>        -0.0698
     29 H1         -0.9592    1.9049    0.0259 H         1 <0>         0.1308
     30 H2          1.1556    3.1659    0.0080 H         1 <0>         0.1314
     31 H3          3.3048    1.9655   -0.0201 H         1 <0>         0.1339
     32 H4         -0.9258   -0.5566    0.0079 H         1 <0>         0.1453
     33 H5          1.7382   -2.5373   -0.9189 H         1 <0>         0.0788
     34 H6          1.7562   -2.5474    0.8609 H         1 <0>         0.0785
     35 H7          1.8298   -4.4366   -0.0310 H         1 <0>         0.1237
     36 H8          1.5377   -6.8804   -0.0407 H         1 <0>         0.1212
     37 H9         -0.7215   -7.8542   -0.0336 H         1 <0>         0.1221
     38 H10        -2.4149   -2.8339   -1.8191 H         1 <0>         0.0628
     39 H11        -3.4764   -4.2627   -1.8164 H         1 <0>         0.1151
     40 H12        -4.2410   -2.5681    1.0893 H         1 <0>         0.1397
     41 H13        -6.1967   -1.1144    1.4401 H         1 <0>         0.1254
     42 H14        -7.4273   -0.2166   -0.4945 H         1 <0>         0.1269
     43 H15        -6.7024   -0.7722   -2.7808 H         1 <0>         0.1308
     44 H16        -3.0506   -7.5596    0.4136 H         1 <0>         0.0719
     45 H17        -3.7558   -5.9338    0.5805 H         1 <0>         0.0775
@<TRIPOS>BOND
     1    1    6 ar
     2    1    2 ar
     3    1   29 1
     4    2    3 ar
     5    2   30 1
     6    3    4 ar
     7    3   31 1
     8    4    5 ar
     9    4   28 1
    10    5    6 ar
    11    5    7 1
    12    6   32 1
    13    7    8 1
    14    7   33 1
    15    7   34 1
    16    8    9 1
    17    9   14 ar
    18    9   10 ar
    19   10   11 ar
    20   10   35 1
    21   11   12 ar
    22   11   36 1
    23   12   13 ar
    24   12   37 1
    25   13   14 ar
    26   13   24 1
    27   14   15 1
    28   15   16 1
    29   16   17 1
    30   16   38 1
    31   16   39 1
    32   17   22 ar
    33   17   18 ar
    34   18   19 ar
    35   18   40 1
    36   19   20 ar
    37   19   41 1
    38   20   21 ar
    39   20   42 1
    40   21   22 ar
    41   21   43 1
    42   22   23 1
    43   24   25 1
    44   24   44 1
    45   24   45 1
    46   25   26 2
    47   25   27 1
@<TRIPOS>MOLECULE
CHEMBL247298
   42    44     0     0     0
SMALL
USER_CHARGES

@<TRIPOS>ATOM
      1 H1          0.0021   -0.0041    0.0020 H         1 <0>         0.1454
      2 C1         -0.0126    1.0758    0.0080 C.ar      1 <0>        -0.1024
      3 C2         -1.2197    1.7514    0.0289 C.ar      1 <0>        -0.0259
      4 C3         -1.2379    3.1347    0.0364 C.ar      1 <0>        -0.1020
      5 C4         -0.0501    3.8419    0.0226 C.ar      1 <0>        -0.0684
      6 C5          1.1560    3.1676    0.0017 C.ar      1 <0>        -0.0709
      7 C6          1.1755    1.7839    0.0004 C.ar      1 <0>        -0.0213
      8 Cl1         2.6908    0.9369   -0.0180 Cl        1 <0>        -0.0551
      9 C7          2.4504    3.9392   -0.0133 C.3       1 <0>         0.0980
     10 O1          2.1698    5.3404   -0.0023 O.3       1 <0>        -0.3037
     11 C8          3.2366    6.1838   -0.0137 C.ar      1 <0>         0.0898
     12 C9          4.5229    5.6726   -0.0407 C.ar      1 <0>        -0.2053
     13 C10         5.6153    6.5248   -0.0529 C.ar      1 <0>        -0.1036
     14 C11         5.4338    7.8898   -0.0383 C.ar      1 <0>        -0.1070
     15 C12         4.1403    8.4231   -0.0109 C.ar      1 <0>        -0.1128
     16 C13         3.0350    7.5607   -0.0039 C.ar      1 <0>         0.0995
     17 O2          1.7758    8.0657    0.0169 O.3       1 <0>        -0.2947
     18 C14         1.1923    8.3009    1.3000 C.3       1 <0>         0.1200
     19 C15        -0.1970    8.8579    1.1256 C.ar      1 <0>        -0.0445
     20 C16        -0.7081    9.0555   -0.1436 C.ar      1 <0>        -0.0593
     21 C17        -1.9821    9.5662   -0.3044 C.ar      1 <0>        -0.1064
     22 C18        -2.7472    9.8798    0.8052 C.ar      1 <0>        -0.0325
     23 C19        -2.2367    9.6820    2.0753 C.ar      1 <0>        -0.1049
     24 C20        -0.9630    9.1661    2.2356 C.ar      1 <0>        -0.0248
     25 Cl2        -0.3235    8.9118    3.8294 Cl        1 <0>        -0.0614
     26 H2         -2.8334    9.9266    2.9416 H         1 <0>         0.1409
     27 Cl3        -4.3474   10.5220    0.6031 Cl        1 <0>        -0.0712
     28 C21         3.9412    9.8812    0.0052 C.2       1 <0>         0.5197
     29 O3          4.9080   10.6307   -0.0052 O.co2     1 <0>        -0.6863
     30 O4          2.8089   10.3438    0.0292 O.co2     1 <0>        -0.6600
     31 Cl4        -2.7114    0.8635    0.0451 Cl        1 <0>        -0.0601
     32 H3         -2.1801    3.6622    0.0527 H         1 <0>         0.1430
     33 H4         -0.0648    4.9218    0.0278 H         1 <0>         0.1564
     34 H5          3.0385    3.6795    0.8669 H         1 <0>         0.0809
     35 H6          3.0125    3.6883   -0.9128 H         1 <0>         0.0817
     36 H7          4.6757    4.6035   -0.0520 H         1 <0>         0.1232
     37 H8          6.6149    6.1162   -0.0737 H         1 <0>         0.1210
     38 H9          6.2895    8.5486   -0.0476 H         1 <0>         0.1330
     39 H10         1.1410    7.3631    1.8532 H         1 <0>         0.0587
     40 H11         1.8035    9.0152    1.8517 H         1 <0>         0.0813
     41 H12        -0.1113    8.8109   -1.0099 H         1 <0>         0.1540
     42 H13        -2.3806    9.7210   -1.2962 H         1 <0>         0.1378
@<TRIPOS>BOND
     1    1    2 1
     2    2    7 ar
     3    2    3 ar
     4    3    4 ar
     5    3   31 1
     6    4    5 ar
     7    4   32 1
     8    5    6 ar
     9    5   33 1
    10    6    7 ar
    11    6    9 1
    12    7    8 1
    13    9   10 1
    14    9   34 1
    15    9   35 1
    16   10   11 1
    17   11   16 ar
    18   11   12 ar
    19   12   13 ar
    20   12   36 1
    21   13   14 ar
    22   13   37 1
    23   14   15 ar
    24   14   38 1
    25   15   16 ar
    26   15   28 1
    27   16   17 1
    28   17   18 1
    29   18   19 1
    30   18   39 1
    31   18   40 1
    32   19   24 ar
    33   19   20 ar
    34   20   21 ar
    35   20   41 1
    36   21   22 ar
    37   21   42 1
    38   22   23 ar
    39   22   27 1
    40   23   24 ar
    41   23   26 1
    42   24   25 1
    43   28   29 2
    44   28   30 1
@<TRIPOS>MOLECULE
CHEMBL184795
   36    38     0     0     0
SMALL
USER_CHARGES

@<TRIPOS>ATOM
      1 C1         -0.0166    1.3739    0.0096 C.ar      1 <0>        -0.1565
      2 C2          1.1715    2.0887    0.0021 C.ar      1 <0>        -0.0855
      3 C3          2.3835    1.4330   -0.0135 C.ar      1 <0>        -0.1403
      4 C4          2.4230    0.0419   -0.0218 C.ar      1 <0>         0.1471
      5 C5          1.2201   -0.6797   -0.0137 C.ar      1 <0>        -0.1088
      6 C6          0.0021   -0.0041    0.0020 C.ar      1 <0>        -0.0634
      7 C7          1.5887   -2.1073   -0.0265 C.ar      1 <0>        -0.1089
      8 C8          0.8500   -3.2882   -0.0266 C.ar      1 <0>        -0.0633
      9 C9          1.5007   -4.5029   -0.0413 C.ar      1 <0>        -0.1565
     10 C10         2.8862   -4.5530   -0.0561 C.ar      1 <0>        -0.0855
     11 C11         3.6293   -3.3925   -0.0558 C.ar      1 <0>        -0.1403
     12 C12         2.9905   -2.1561   -0.0414 C.ar      1 <0>         0.1471
     13 N1          3.4724   -0.8594   -0.0383 N.pl3     1 <0>        -0.5000
     14 C13         4.8908   -0.4931   -0.0508 C.3       1 <0>         0.1119
     15 C14         5.3995   -0.3745    1.3873 C.3       1 <0>        -0.1365
     16 C15         6.8809    0.0081    1.3743 C.3       1 <0>        -0.0890
     17 C16         7.3896    0.1266    2.8123 C.3       1 <0>        -0.1824
     18 C17         8.8487    0.5034    2.7995 C.2       1 <0>         0.4885
     19 O1          9.4279    0.6625    1.7385 O.co2     1 <0>        -0.6995
     20 O2          9.4499    0.6493    3.8501 O.co2     1 <0>        -0.7069
     21 H1         -0.9602    1.8990    0.0259 H         1 <0>         0.1234
     22 H2          1.1469    3.1684    0.0081 H         1 <0>         0.1268
     23 H3          3.3032    1.9991   -0.0196 H         1 <0>         0.1244
     24 H4         -0.9248   -0.5584    0.0083 H         1 <0>         0.1217
     25 H5         -0.2293   -3.2520   -0.0147 H         1 <0>         0.1217
     26 H6          0.9292   -5.4194   -0.0411 H         1 <0>         0.1234
     27 H7          3.3873   -5.5097   -0.0676 H         1 <0>         0.1268
     28 H8          4.7081   -3.4425   -0.0666 H         1 <0>         0.1244
     29 H9          5.4597   -1.2607   -0.5753 H         1 <0>         0.0880
     30 H10         5.0147    0.4627   -0.5600 H         1 <0>         0.0880
     31 H11         4.8306    0.3931    1.9118 H         1 <0>         0.0626
     32 H12         5.2756   -1.3303    1.8965 H         1 <0>         0.0626
     33 H13         7.4498   -0.7596    0.8497 H         1 <0>         0.0618
     34 H14         7.0048    0.9638    0.8651 H         1 <0>         0.0618
     35 H15         6.8207    0.8942    3.3369 H         1 <0>         0.0556
     36 H16         7.2657   -0.8291    3.3215 H         1 <0>         0.0556
@<TRIPOS>BOND
     1    1    6 ar
     2    1    2 ar
     3    1   21 1
     4    2    3 ar
     5    2   22 1
     6    3    4 ar
     7    3   23 1
     8    4   13 1
     9    4    5 ar
    10    5    6 ar
    11    5    7 1
    12    6   24 1
    13    7   12 ar
    14    7    8 ar
    15    8    9 ar
    16    8   25 1
    17    9   10 ar
    18    9   26 1
    19   10   11 ar
    20   10   27 1
    21   11   12 ar
    22   11   28 1
    23   12   13 1
    24   13   14 1
    25   14   15 1
    26   14   29 1
    27   14   30 1
    28   15   16 1
    29   15   31 1
    30   15   32 1
    31   16   17 1
    32   16   33 1
    33   16   34 1
    34   17   18 1
    35   17   35 1
    36   17   36 1
    37   18   19 2
    38   18   20 1
@<TRIPOS>MOLECULE
CHEMBL285527
   33    35     0     0     0
SMALL
USER_CHARGES

@<TRIPOS>ATOM
      1 C1          2.1093    1.5563    3.8225 C.ar      1 <0>        -0.1932
      2 C2          2.3956    2.1947    2.6296 C.ar      1 <0>        -0.0835
      3 C3          2.9191    1.4798    1.5704 C.ar      1 <0>        -0.1678
      4 C4          3.1581    0.1177    1.7042 C.ar      1 <0>         0.2862
      5 C5          2.8693   -0.5204    2.9041 C.ar      1 <0>        -0.1962
      6 C6          2.3459    0.2006    3.9592 C.ar      1 <0>        -0.0840
      7 N1          3.6872   -0.6086    0.6347 N.pl3     1 <0>        -0.6813
      8 C7          3.7618   -1.9982    0.7053 C.ar      1 <0>         0.1818
      9 C8          2.6418   -2.7404    1.0163 C.ar      1 <0>        -0.1539
     10 C9          2.7057   -4.1283    1.0888 C.ar      1 <0>        -0.0965
     11 C10         3.8721   -4.7916    0.8561 C.ar      1 <0>        -0.1358
     12 C11         5.0364   -4.0730    0.5362 C.ar      1 <0>        -0.0508
     13 C12         4.9831   -2.6597    0.4535 C.ar      1 <0>        -0.0037
     14 C13         6.1457   -1.9438    0.1286 C.ar      1 <0>        -0.6424
     15 C14         7.3066   -2.6149   -0.1080 C.ar      1 <0>        -0.0331
     16 C15         7.3589   -4.0053   -0.0330 C.ar      1 <0>        -0.1328
     17 C16         6.2541   -4.7313    0.2912 C.ar      1 <0>        -0.0867
     18 S1          6.1032   -0.1852    0.0268 S.o2      1 <0>         2.6887
     19 O1          5.4595    0.2927    1.2407 O.2       1 <0>        -1.0293
     20 O2          7.4827    0.2658   -0.0703 O.2       1 <0>        -1.0606
     21 O3          5.3366    0.1506   -1.1630 O.3       1 <0>        -1.0600
     22 H1          1.7041    2.1186    4.6508 H         1 <0>         0.1074
     23 H2          2.2093    3.2534    2.5262 H         1 <0>         0.1125
     24 H3          3.1422    1.9789    0.6390 H         1 <0>         0.1153
     25 H4          3.0535   -1.5791    3.0114 H         1 <0>         0.1154
     26 H5          2.1215   -0.2947    4.8923 H         1 <0>         0.1097
     27 H6          4.0026   -0.1456   -0.1572 H         1 <0>         0.4161
     28 H7          1.7045   -2.2384    1.2059 H         1 <0>         0.1271
     29 H8          1.8157   -4.6889    1.3340 H         1 <0>         0.1219
     30 H9          3.9022   -5.8695    0.9177 H         1 <0>         0.1222
     31 H10         8.1998   -2.0615   -0.3578 H         1 <0>         0.1369
     32 H11         8.2920   -4.5139   -0.2255 H         1 <0>         0.1240
     33 H12         6.3096   -5.8085    0.3468 H         1 <0>         0.1263
@<TRIPOS>BOND
     1    1    6 ar
     2    1    2 ar
     3    1   22 1
     4    2    3 ar
     5    2   23 1
     6    3    4 ar
     7    3   24 1
     8    4    5 ar
     9    4    7 1
    10    5    6 ar
    11    5   25 1
    12    6   26 1
    13    7    8 1
    14    7   27 1
    15    8   13 ar
    16    8    9 ar
    17    9   10 ar
    18    9   28 1
    19   10   11 ar
    20   10   29 1
    21   11   12 ar
    22   11   30 1
    23   12   17 ar
    24   12   13 ar
    25   13   14 ar
    26   14   15 ar
    27   14   18 1
    28   15   16 ar
    29   15   31 1
    30   16   17 ar
    31   16   32 1
    32   17   33 1
    33   18   19 2
    34   18   20 2
    35   18   21 1
@<TRIPOS>MOLECULE
CHEMBL245857
   68    72     0     0     0
SMALL
USER_CHARGES

@<TRIPOS>ATOM
      1 C1          1.0480    1.7340    0.9407 C.3       1 <0>        -0.1432
      2 C2          0.8742    0.2172    0.8397 C.3       1 <0>        -0.1072
      3 C3          1.2965   -0.4334    2.1585 C.3       1 <0>        -0.1532
      4 C4         -0.5932   -0.1103    0.5564 C.3       1 <0>         0.1004
      5 N1         -0.7358   -1.5492    0.3212 N.pl3     1 <0>        -0.4336
      6 C5         -0.5304   -2.2063   -0.8697 C.2       1 <0>         0.0279
      7 C6         -0.7783   -3.5470   -0.6248 C.2       1 <0>         0.0616
      8 N2         -1.1179   -3.6710    0.6678 N.2       1 <0>        -0.4380
      9 C7         -1.0919   -2.4904    1.2446 C.2       1 <0>         0.2616
     10 C8         -1.4012   -2.2238    2.6633 C.ar      1 <0>        -0.0072
     11 C9         -2.3837   -1.2941    3.0049 C.ar      1 <0>        -0.1040
     12 C10        -2.6690   -1.0492    4.3320 C.ar      1 <0>        -0.1239
     13 C11        -1.9853   -1.7215    5.3316 C.ar      1 <0>        -0.1056
     14 C12        -1.0098   -2.6444    5.0125 C.ar      1 <0>        -0.1063
     15 C13        -0.7115   -2.9095    3.6789 C.ar      1 <0>         0.0102
     16 C14         0.3305   -3.9044    3.3315 C.ar      1 <0>        -0.0274
     17 C15         0.0135   -4.9962    2.5232 C.ar      1 <0>        -0.1369
     18 C16         0.9852   -5.9218    2.2008 C.ar      1 <0>        -0.0818
     19 C17         2.2742   -5.7716    2.6768 C.ar      1 <0>        -0.1964
     20 C18         2.5996   -4.6871    3.4828 C.ar      1 <0>         0.2206
     21 C19         1.6307   -3.7489    3.8067 C.ar      1 <0>        -0.1865
     22 N3          3.9034   -4.5390    3.9619 N.pl3     1 <0>        -0.7200
     23 C20         4.9280   -5.5268    3.6147 C.3       1 <0>         0.0567
     24 C21         6.2369   -5.1384    4.2527 C.2       1 <0>         0.4901
     25 O1          6.3073   -4.1299    4.9342 O.co2     1 <0>        -0.6909
     26 O2          7.2254   -5.8327    4.0874 O.co2     1 <0>        -0.6923
     27 C22        -0.6859   -4.6471   -1.6130 C.ar      1 <0>         0.0035
     28 C23        -1.1680   -4.4663   -2.9090 C.ar      1 <0>        -0.1017
     29 C24        -1.0787   -5.4943   -3.8250 C.ar      1 <0>        -0.1227
     30 C25        -0.5123   -6.7026   -3.4599 C.ar      1 <0>        -0.1211
     31 C26        -0.0323   -6.8880   -2.1758 C.ar      1 <0>        -0.1209
     32 C27        -0.1112   -5.8655   -1.2524 C.ar      1 <0>        -0.0942
     33 C28        -0.1259   -1.6025   -2.1542 C.ar      1 <0>        -0.0071
     34 C29        -0.7350   -0.4268   -2.5997 C.ar      1 <0>        -0.1158
     35 C30        -0.3520    0.1319   -3.8012 C.ar      1 <0>        -0.1177
     36 C31         0.6331   -0.4693   -4.5647 C.ar      1 <0>        -0.1171
     37 C32         1.2408   -1.6339   -4.1297 C.ar      1 <0>        -0.1134
     38 C33         0.8719   -2.2007   -2.9276 C.ar      1 <0>        -0.0864
     39 H1          2.0934    1.9673    1.1425 H         1 <0>         0.0641
     40 H2          0.7471    2.1975    0.0012 H         1 <0>         0.0552
     41 H3          0.4272    2.1177    1.7503 H         1 <0>         0.0579
     42 H4          1.4950   -0.1665    0.0301 H         1 <0>         0.0761
     43 H5          1.0983   -1.5043    2.1152 H         1 <0>         0.0665
     44 H6          2.3615   -0.2673    2.3209 H         1 <0>         0.0597
     45 H7          0.7307    0.0080    2.9790 H         1 <0>         0.0551
     46 H8         -1.2021    0.1800    1.4126 H         1 <0>         0.0968
     47 H9         -0.9237    0.4368   -0.3265 H         1 <0>         0.0915
     48 H10        -2.9204   -0.7661    2.2305 H         1 <0>         0.1195
     49 H11        -3.4299   -0.3287    4.5932 H         1 <0>         0.1243
     50 H12        -2.2168   -1.5220    6.3675 H         1 <0>         0.1254
     51 H13        -0.4808   -3.1642    5.7976 H         1 <0>         0.1309
     52 H14        -0.9926   -5.1174    2.1499 H         1 <0>         0.1368
     53 H15         0.7376   -6.7663    1.5748 H         1 <0>         0.1121
     54 H16         3.0305   -6.4992    2.4221 H         1 <0>         0.1155
     55 H17         1.8825   -2.9028    4.4289 H         1 <0>         0.1126
     56 H18         4.1303   -3.7820    4.5244 H         1 <0>         0.4062
     57 H19         4.6240   -6.5086    3.9779 H         1 <0>         0.0564
     58 H20         5.0477   -5.5610    2.5319 H         1 <0>         0.0553
     59 H21        -1.6107   -3.5236   -3.1950 H         1 <0>         0.1174
     60 H22        -1.4520   -5.3556   -4.8289 H         1 <0>         0.1190
     61 H23        -0.4450   -7.5044   -4.1803 H         1 <0>         0.1184
     62 H24         0.4088   -7.8334   -1.8966 H         1 <0>         0.1224
     63 H25         0.2676   -6.0100   -0.2514 H         1 <0>         0.1314
     64 H26        -1.5042    0.0432   -2.0049 H         1 <0>         0.1177
     65 H27        -0.8223    1.0405   -4.1470 H         1 <0>         0.1223
     66 H28         0.9289   -0.0276   -5.5049 H         1 <0>         0.1219
     67 H29         2.0090   -2.0977   -4.7307 H         1 <0>         0.1254
     68 H30         1.3505   -3.1070   -2.5869 H         1 <0>         0.1260
@<TRIPOS>BOND
     1    1    2 1
     2    1   39 1
     3    1   40 1
     4    1   41 1
     5    2    3 1
     6    2    4 1
     7    2   42 1
     8    3   43 1
     9    3   44 1
    10    3   45 1
    11    4    5 1
    12    4   46 1
    13    4   47 1
    14    5    9 1
    15    5    6 1
    16    6    7 2
    17    6   33 1
    18    7    8 1
    19    7   27 1
    20    8    9 2
    21    9   10 1
    22   10   15 ar
    23   10   11 ar
    24   11   12 ar
    25   11   48 1
    26   12   13 ar
    27   12   49 1
    28   13   14 ar
    29   13   50 1
    30   14   15 ar
    31   14   51 1
    32   15   16 1
    33   16   21 ar
    34   16   17 ar
    35   17   18 ar
    36   17   52 1
    37   18   19 ar
    38   18   53 1
    39   19   20 ar
    40   19   54 1
    41   20   21 ar
    42   20   22 1
    43   21   55 1
    44   22   23 1
    45   22   56 1
    46   23   24 1
    47   23   57 1
    48   23   58 1
    49   24   25 2
    50   24   26 1
    51   27   32 ar
    52   27   28 ar
    53   28   29 ar
    54   28   59 1
    55   29   30 ar
    56   29   60 1
    57   30   31 ar
    58   30   61 1
    59   31   32 ar
    60   31   62 1
    61   32   63 1
    62   33   38 ar
    63   33   34 ar
    64   34   35 ar
    65   34   64 1
    66   35   36 ar
    67   35   65 1
    68   36   37 ar
    69   36   66 1
    70   37   38 ar
    71   37   67 1
    72   38   68 1
@<TRIPOS>MOLECULE
CHEMBL245857__1
   69    73     0     0     0
SMALL
USER_CHARGES

@<TRIPOS>ATOM
      1 C1         -0.3516    1.2802   -0.6335 C.3       1 <0>        -0.1603
      2 C2         -0.1085   -0.2285   -0.5584 C.3       1 <0>        -0.1125
      3 C3         -1.4366   -0.9682   -0.7315 C.3       1 <0>        -0.1488
      4 C4          0.8563   -0.6456   -1.6702 C.3       1 <0>         0.0887
      5 N1          2.1705   -0.0458   -1.4268 N.pl3     1 <0>        -0.3949
      6 C5          2.5732    1.2167   -1.7959 C.2       1 <0>         0.1110
      7 C6          3.8819    1.3524   -1.3627 C.2       1 <0>         0.1000
      8 N2          4.2343    0.2065   -0.7593 N.pl3     1 <0>        -0.4547
      9 C7          3.2237   -0.6332   -0.7855 C.cat     1 <0>         0.3792
     10 C8          3.2272   -1.9951   -0.2155 C.ar      1 <0>        -0.0965
     11 C9          2.2093   -2.3966    0.6499 C.ar      1 <0>        -0.0762
     12 C10         2.2173   -3.6703    1.1792 C.ar      1 <0>        -0.1175
     13 C11         3.2316   -4.5570    0.8570 C.ar      1 <0>        -0.0674
     14 C12         4.2471   -4.1771    0.0028 C.ar      1 <0>        -0.1006
     15 C13         4.2534   -2.8978   -0.5461 C.ar      1 <0>         0.0260
     16 C14         5.3383   -2.4879   -1.4688 C.ar      1 <0>        -0.0476
     17 C15         5.0296   -2.0042   -2.7402 C.ar      1 <0>        -0.1946
     18 C16         6.0411   -1.6229   -3.5983 C.ar      1 <0>        -0.0596
     19 C17         7.3620   -1.7189   -3.2025 C.ar      1 <0>        -0.1909
     20 C18         7.6794   -2.1996   -1.9377 C.ar      1 <0>         0.2400
     21 C19         6.6689   -2.5791   -1.0668 C.ar      1 <0>        -0.1923
     22 N3          9.0156   -2.2950   -1.5416 N.pl3     1 <0>        -0.7027
     23 C20        10.0826   -1.8884   -2.4594 C.3       1 <0>         0.0468
     24 C21        11.4203   -2.0887   -1.7950 C.2       1 <0>         0.4890
     25 O1         11.4771   -2.5302   -0.6599 O.co2     1 <0>        -0.6883
     26 O2         12.4457   -1.8092   -2.3924 O.co2     1 <0>        -0.6819
     27 C22         4.7395    2.5482   -1.5352 C.ar      1 <0>        -0.0617
     28 C23         4.7816    3.2082   -2.7630 C.ar      1 <0>        -0.0721
     29 C24         5.5818    4.3217   -2.9174 C.ar      1 <0>        -0.1126
     30 C25         6.3414    4.7835   -1.8574 C.ar      1 <0>        -0.0870
     31 C26         6.3038    4.1330   -0.6370 C.ar      1 <0>        -0.1111
     32 C27         5.5034    3.0216   -0.4688 C.ar      1 <0>        -0.0941
     33 C28         1.7698    2.2267   -2.5119 C.ar      1 <0>        -0.0469
     34 C29         1.0024    1.8569   -3.6191 C.ar      1 <0>        -0.0980
     35 C30         0.2541    2.8062   -4.2834 C.ar      1 <0>        -0.1120
     36 C31         0.2623    4.1221   -3.8556 C.ar      1 <0>        -0.0903
     37 C32         1.0201    4.4956   -2.7596 C.ar      1 <0>        -0.1102
     38 C33         1.7688    3.5559   -2.0822 C.ar      1 <0>        -0.0754
     39 H1          0.5946    1.8072   -0.5102 H         1 <0>         0.0578
     40 H2         -0.7835    1.5309   -1.6024 H         1 <0>         0.0669
     41 H3         -1.0389    1.5774    0.1586 H         1 <0>         0.0690
     42 H4          0.3234   -0.4791    0.4104 H         1 <0>         0.0830
     43 H5         -1.8685   -0.7176   -1.7004 H         1 <0>         0.0657
     44 H6         -1.2634   -2.0431   -0.6781 H         1 <0>         0.0652
     45 H7         -2.1239   -0.6711    0.0605 H         1 <0>         0.0735
     46 H8          0.9491   -1.7315   -1.6823 H         1 <0>         0.1198
     47 H9          0.4730   -0.3030   -2.6314 H         1 <0>         0.1218
     48 H10         1.4157   -1.7102    0.9056 H         1 <0>         0.1343
     49 H11         1.4281   -3.9780    1.8492 H         1 <0>         0.1411
     50 H12         3.2279   -5.5519    1.2772 H         1 <0>         0.1416
     51 H13         5.0346   -4.8740   -0.2433 H         1 <0>         0.1454
     52 H14         3.9988   -1.9284   -3.0534 H         1 <0>         0.1041
     53 H15         5.7999   -1.2487   -4.5823 H         1 <0>         0.1205
     54 H16         8.1497   -1.4198   -3.8782 H         1 <0>         0.1275
     55 H17         6.9130   -2.9484   -0.0817 H         1 <0>         0.1266
     56 H18         9.2370   -2.6305   -0.6588 H         1 <0>         0.4123
     57 H19        10.0327   -2.4927   -3.3652 H         1 <0>         0.0638
     58 H20         9.9588   -0.8365   -2.7172 H         1 <0>         0.0623
     59 H21         4.1894    2.8484   -3.5913 H         1 <0>         0.1291
     60 H22         5.6156    4.8335   -3.8679 H         1 <0>         0.1351
     61 H23         6.9665    5.6552   -1.9831 H         1 <0>         0.1340
     62 H24         6.8990    4.4981    0.1869 H         1 <0>         0.1355
     63 H25         5.4717    2.5170    0.4855 H         1 <0>         0.1246
     64 H26         0.9953    0.8303   -3.9543 H         1 <0>         0.1246
     65 H27        -0.3394    2.5218   -5.1397 H         1 <0>         0.1339
     66 H28        -0.3253    4.8613   -4.3797 H         1 <0>         0.1326
     67 H29         1.0218    5.5245   -2.4312 H         1 <0>         0.1347
     68 H30         2.3559    3.8479   -1.2240 H         1 <0>         0.1301
     69 H31         5.1008    0.0268   -0.3621 H         1 <0>         0.4614
@<TRIPOS>BOND
     1    1    2 1
     2    1   39 1
     3    1   40 1
     4    1   41 1
     5    2    3 1
     6    2    4 1
     7    2   42 1
     8    3   43 1
     9    3   44 1
    10    3   45 1
    11    4    5 1
    12    4   46 1
    13    4   47 1
    14    5    9 1
    15    5    6 1
    16    6    7 2
    17    6   33 1
    18    7    8 1
    19    7   27 1
    20    8    9 2
    21    8   69 1
    22    9   10 1
    23   10   15 ar
    24   10   11 ar
    25   11   12 ar
    26   11   48 1
    27   12   13 ar
    28   12   49 1
    29   13   14 ar
    30   13   50 1
    31   14   15 ar
    32   14   51 1
    33   15   16 1
    34   16   21 ar
    35   16   17 ar
    36   17   18 ar
    37   17   52 1
    38   18   19 ar
    39   18   53 1
    40   19   20 ar
    41   19   54 1
    42   20   21 ar
    43   20   22 1
    44   21   55 1
    45   22   23 1
    46   22   56 1
    47   23   24 1
    48   23   57 1
    49   23   58 1
    50   24   25 2
    51   24   26 1
    52   27   32 ar
    53   27   28 ar
    54   28   29 ar
    55   28   59 1
    56   29   30 ar
    57   29   60 1
    58   30   31 ar
    59   30   61 1
    60   31   32 ar
    61   31   62 1
    62   32   63 1
    63   33   38 ar
    64   33   34 ar
    65   34   35 ar
    66   34   64 1
    67   35   36 ar
    68   35   65 1
    69   36   37 ar
    70   36   66 1
    71   37   38 ar
    72   37   67 1
    73   38   68 1
@<TRIPOS>MOLECULE
CHEMBL437489
   49    51     0     0     0
SMALL
USER_CHARGES

@<TRIPOS>ATOM
      1 C1          0.4952    1.0640    0.2938 C.3       1 <0>         0.0433
      2 O1          0.1846   -0.3308    0.2871 O.3       1 <0>        -0.3708
      3 C2         -1.2015   -0.6167    0.0891 C.3       1 <0>         0.0561
      4 C3         -1.5545   -1.9024    0.7914 C.ar      1 <0>        -0.0169
      5 C4         -0.6315   -2.9300    0.8578 C.ar      1 <0>        -0.1191
      6 C5         -0.9521   -4.1105    1.5011 C.ar      1 <0>        -0.0900
      7 C6         -2.1975   -4.2695    2.0808 C.ar      1 <0>        -0.2095
      8 C7         -3.1267   -3.2440    2.0179 C.ar      1 <0>         0.1026
      9 C8         -2.8016   -2.0528    1.3754 C.ar      1 <0>         0.0853
     10 O2         -3.7085   -1.0411    1.3158 O.3       1 <0>        -0.3230
     11 C9         -4.6994   -1.1178    0.2890 C.3       1 <0>         0.0787
     12 C10        -5.6970   -0.0027    0.4695 C.ar      1 <0>        -0.0564
     13 C11        -5.5511    0.8934    1.5119 C.ar      1 <0>        -0.0915
     14 C12        -6.4660    1.9161    1.6776 C.ar      1 <0>        -0.1181
     15 C13        -7.5276    2.0435    0.8009 C.ar      1 <0>        -0.1208
     16 C14        -7.6745    1.1483   -0.2415 C.ar      1 <0>        -0.1118
     17 C15        -6.7557    0.1276   -0.4113 C.ar      1 <0>        -0.0330
     18 Cl1        -6.9358   -0.9934   -1.7245 Cl        1 <0>        -0.0636
     19 O3         -4.3519   -3.3988    2.5875 O.3       1 <0>        -0.3018
     20 C16        -4.6136   -4.6455    3.2348 C.3       1 <0>         0.0994
     21 C17        -6.0096   -4.6336    3.8023 C.ar      1 <0>        -0.0771
     22 C18        -6.8116   -3.5191    3.6419 C.ar      1 <0>        -0.0812
     23 C19        -8.0920   -3.5080    4.1623 C.ar      1 <0>        -0.1126
     24 C20        -8.5715   -4.6114    4.8436 C.ar      1 <0>        -0.1094
     25 C21        -7.7708   -5.7262    5.0046 C.ar      1 <0>        -0.1112
     26 C22        -6.4909   -5.7400    4.4789 C.ar      1 <0>        -0.0313
     27 Cl2        -5.4867   -7.1425    4.6751 Cl        1 <0>        -0.0695
     28 C23        -1.4798   -0.7569   -1.3854 C.2       1 <0>         0.4899
     29 O4         -0.6001   -0.5237   -2.1967 O.co2     1 <0>        -0.6730
     30 O5         -2.5847   -1.1034   -1.7669 O.co2     1 <0>        -0.6796
     31 H1          1.5658    1.1970    0.4492 H         1 <0>         0.0750
     32 H2          0.2092    1.5045   -0.6613 H         1 <0>         0.0450
     33 H3         -0.0525    1.5543    1.0987 H         1 <0>         0.0262
     34 H4         -1.8020    0.1966    0.4965 H         1 <0>         0.0705
     35 H5          0.3419   -2.8100    0.4057 H         1 <0>         0.1330
     36 H6         -0.2285   -4.9107    1.5509 H         1 <0>         0.1243
     37 H7         -2.4458   -5.1932    2.5823 H         1 <0>         0.1257
     38 H8         -4.2208   -1.0228   -0.6856 H         1 <0>         0.1352
     39 H9         -5.2123   -2.0776    0.3500 H         1 <0>         0.0616
     40 H10        -4.7223    0.7942    2.1972 H         1 <0>         0.1389
     41 H11        -6.3519    2.6158    2.4923 H         1 <0>         0.1248
     42 H12        -8.2423    2.8426    0.9311 H         1 <0>         0.1264
     43 H13        -8.5039    1.2477   -0.9261 H         1 <0>         0.1303
     44 H14        -4.5221   -5.4564    2.5122 H         1 <0>         0.0790
     45 H15        -3.8950   -4.7944    4.0408 H         1 <0>         0.0791
     46 H16        -6.4374   -2.6568    3.1101 H         1 <0>         0.1445
     47 H17        -8.7181   -2.6369    4.0370 H         1 <0>         0.1306
     48 H18        -9.5720   -4.6021    5.2503 H         1 <0>         0.1315
     49 H19        -8.1453   -6.5879    5.5371 H         1 <0>         0.1341
@<TRIPOS>BOND
     1    1    2 1
     2    1   31 1
     3    1   32 1
     4    1   33 1
     5    2    3 1
     6    3    4 1
     7    3   28 1
     8    3   34 1
     9    4    9 ar
    10    4    5 ar
    11    5    6 ar
    12    5   35 1
    13    6    7 ar
    14    6   36 1
    15    7    8 ar
    16    7   37 1
    17    8    9 ar
    18    8   19 1
    19    9   10 1
    20   10   11 1
    21   11   12 1
    22   11   38 1
    23   11   39 1
    24   12   17 ar
    25   12   13 ar
    26   13   14 ar
    27   13   40 1
    28   14   15 ar
    29   14   41 1
    30   15   16 ar
    31   15   42 1
    32   16   17 ar
    33   16   43 1
    34   17   18 1
    35   19   20 1
    36   20   21 1
    37   20   44 1
    38   20   45 1
    39   21   26 ar
    40   21   22 ar
    41   22   23 ar
    42   22   46 1
    43   23   24 ar
    44   23   47 1
    45   24   25 ar
    46   24   48 1
    47   25   26 ar
    48   25   49 1
    49   26   27 1
    50   28   29 2
    51   28   30 1
@<TRIPOS>MOLECULE
CHEMBL437489__1
   49    51     0     0     0
SMALL
USER_CHARGES

@<TRIPOS>ATOM
      1 C1         -0.0173    1.4248    0.0099 C.3       1 <0>         0.0428
      2 O1          0.0021   -0.0041    0.0020 O.3       1 <0>        -0.3709
      3 C2         -1.2953   -0.6030    0.0112 C.3       1 <0>         0.0603
      4 C3         -1.2425   -1.9269   -0.7069 C.ar      1 <0>        -0.0251
      5 C4         -0.0507   -2.6237   -0.7856 C.ar      1 <0>        -0.1212
      6 C5          0.0012   -3.8381   -1.4435 C.ar      1 <0>        -0.0891
      7 C6         -1.1384   -4.3615   -2.0262 C.ar      1 <0>        -0.2108
      8 C7         -2.3355   -3.6686   -1.9510 C.ar      1 <0>         0.1069
      9 C8         -2.3891   -2.4485   -1.2831 C.ar      1 <0>         0.0831
     10 O2         -3.5633   -1.7672   -1.2017 O.3       1 <0>        -0.2920
     11 C9         -3.8499   -0.8408   -2.2514 C.3       1 <0>         0.1032
     12 C10        -5.1822   -0.1855   -1.9931 C.ar      1 <0>        -0.0717
     13 C11        -5.9102   -0.5198   -0.8666 C.ar      1 <0>        -0.0700
     14 C12        -7.1322    0.0811   -0.6296 C.ar      1 <0>        -0.1151
     15 C13        -7.6271    1.0168   -1.5190 C.ar      1 <0>        -0.1131
     16 C14        -6.9003    1.3518   -2.6456 C.ar      1 <0>        -0.1168
     17 C15        -5.6742    0.7548   -2.8804 C.ar      1 <0>        -0.0332
     18 Cl1        -4.7575    1.1799   -4.2920 Cl        1 <0>        -0.0767
     19 O3         -3.4572   -4.1819   -2.5236 O.3       1 <0>        -0.3007
     20 C16        -3.3288   -5.4411   -3.1870 C.3       1 <0>         0.0994
     21 C17        -4.6639   -5.8477   -3.7555 C.ar      1 <0>        -0.0772
     22 C18        -5.7641   -5.0270   -3.5914 C.ar      1 <0>        -0.0812
     23 C19        -6.9887   -5.3998   -4.1127 C.ar      1 <0>        -0.1128
     24 C20        -7.1141   -6.5937   -4.7987 C.ar      1 <0>        -0.1095
     25 C21        -6.0150   -7.4150   -4.9634 C.ar      1 <0>        -0.1113
     26 C22        -4.7875   -7.0396   -4.4466 C.ar      1 <0>        -0.0314
     27 Cl2        -3.4048   -8.0677   -4.6588 Cl        1 <0>        -0.0697
     28 C23        -1.7378   -0.8212    1.4351 C.2       1 <0>         0.4889
     29 O4         -2.8591   -1.2396    1.6677 O.co2     1 <0>        -0.6723
     30 O5         -0.9745   -0.5792    2.3546 O.co2     1 <0>        -0.6786
     31 H1          1.0053    1.8021    0.0021 H         1 <0>         0.0766
     32 H2         -0.5445    1.7859   -0.8732 H         1 <0>         0.0254
     33 H3         -0.5275    1.7763    0.9067 H         1 <0>         0.0427
     34 H4         -2.0031    0.0555   -0.4924 H         1 <0>         0.0624
     35 H5          0.8417   -2.2179   -0.3324 H         1 <0>         0.1351
     36 H6          0.9339   -4.3793   -1.5029 H         1 <0>         0.1248
     37 H7         -1.0950   -5.3103   -2.5403 H         1 <0>         0.1264
     38 H8         -3.0711   -0.0790   -2.2864 H         1 <0>         0.0636
     39 H9         -3.8837   -1.3699   -3.2037 H         1 <0>         0.0674
     40 H10        -5.5243   -1.2509   -0.1716 H         1 <0>         0.1532
     41 H11        -7.7008   -0.1807    0.2505 H         1 <0>         0.1294
     42 H12        -8.5822    1.4857   -1.3335 H         1 <0>         0.1283
     43 H13        -7.2871    2.0825   -3.3405 H         1 <0>         0.1303
     44 H14        -2.6016   -5.3539   -3.9942 H         1 <0>         0.0782
     45 H15        -2.9925   -6.1945   -2.4747 H         1 <0>         0.0801
     46 H16        -5.6669   -4.0945   -3.0553 H         1 <0>         0.1455
     47 H17        -7.8481   -4.7585   -3.9839 H         1 <0>         0.1309
     48 H18        -8.0713   -6.8847   -5.2055 H         1 <0>         0.1314
     49 H19        -6.1131   -8.3477   -5.4989 H         1 <0>         0.1340
@<TRIPOS>BOND
     1    1    2 1
     2    1   31 1
     3    1   32 1
     4    1   33 1
     5    2    3 1
     6    3    4 1
     7    3   28 1
     8    3   34 1
     9    4    9 ar
    10    4    5 ar
    11    5    6 ar
    12    5   35 1
    13    6    7 ar
    14    6   36 1
    15    7    8 ar
    16    7   37 1
    17    8    9 ar
    18    8   19 1
    19    9   10 1
    20   10   11 1
    21   11   12 1
    22   11   38 1
    23   11   39 1
    24   12   17 ar
    25   12   13 ar
    26   13   14 ar
    27   13   40 1
    28   14   15 ar
    29   14   41 1
    30   15   16 ar
    31   15   42 1
    32   16   17 ar
    33   16   43 1
    34   17   18 1
    35   19   20 1
    36   20   21 1
    37   20   44 1
    38   20   45 1
    39   21   26 ar
    40   21   22 ar
    41   22   23 ar
    42   22   46 1
    43   23   24 ar
    44   23   47 1
    45   24   25 ar
    46   24   48 1
    47   25   26 ar
    48   25   49 1
    49   26   27 1
    50   28   29 2
    51   28   30 1
@<TRIPOS>MOLECULE
CHEMBL514666
   45    48     0     0     0
SMALL
USER_CHARGES

@<TRIPOS>ATOM
      1 C1          0.9655    1.5132   -1.0665 C.3       1 <0>         0.0284
      2 O1          0.7493    0.1043   -0.9646 O.3       1 <0>        -0.3067
      3 C2         -0.5234   -0.3090   -0.7271 C.ar      1 <0>         0.1247
      4 C3         -1.5443    0.6222   -0.6006 C.ar      1 <0>        -0.2104
      5 C4         -2.8370    0.1996   -0.3598 C.ar      1 <0>        -0.0953
      6 C5         -3.1143   -1.1503   -0.2447 C.ar      1 <0>        -0.1486
      7 C6         -2.0988   -2.0801   -0.3698 C.ar      1 <0>        -0.0678
      8 C7         -0.8050   -1.6627   -0.6165 C.ar      1 <0>        -0.1346
      9 C8         -2.4044   -3.5503   -0.2433 C.3       1 <0>         0.1143
     10 N1         -2.5753   -4.1301   -1.5778 N.pl3     1 <0>        -0.4510
     11 C9         -3.7290   -4.0783   -2.3171 C.2       1 <0>         0.0699
     12 C10        -3.5432   -4.7087   -3.4964 C.2       1 <0>        -0.1841
     13 C11        -2.1780   -5.1937   -3.5072 C.ar      1 <0>        -0.1045
     14 C12        -1.6128   -4.7939   -2.2691 C.ar      1 <0>         0.1204
     15 C13        -0.2756   -5.1087   -1.9588 C.ar      1 <0>        -0.1195
     16 C14         0.4459   -5.8212   -2.9270 C.ar      1 <0>        -0.0994
     17 C15        -0.1177   -6.1998   -4.1277 C.ar      1 <0>        -0.1488
     18 C16        -1.4340   -5.9074   -4.4502 C.ar      1 <0>        -0.0955
     19 C17         0.3347   -4.7089   -0.6812 C.2       1 <0>         0.5329
     20 O2          1.2193   -3.8638   -0.6638 O.co2     1 <0>        -0.6663
     21 O3         -0.0424   -5.2214    0.3638 O.co2     1 <0>        -0.6794
     22 C18        -4.5987   -4.8506   -4.5631 C.3       1 <0>        -0.0356
     23 C19        -5.9667   -4.5516   -3.9383 C.3       1 <0>        -0.1174
     24 C20        -5.8918   -3.2330   -3.1633 C.3       1 <0>        -0.1099
     25 C21        -5.0292   -3.4252   -1.9111 C.3       1 <0>        -0.0595
     26 H1          2.0213    1.7060   -1.2566 H         1 <0>         0.0966
     27 H2          0.3696    1.9138   -1.8866 H         1 <0>         0.0498
     28 H3          0.6704    1.9945   -0.1341 H         1 <0>         0.0506
     29 H4         -1.3282    1.6766   -0.6901 H         1 <0>         0.1222
     30 H5         -3.6319    0.9240   -0.2609 H         1 <0>         0.1198
     31 H6         -4.1257   -1.4788   -0.0563 H         1 <0>         0.1189
     32 H7         -0.0128   -2.3896   -0.7186 H         1 <0>         0.1784
     33 H8         -1.5811   -4.0499    0.2672 H         1 <0>         0.1470
     34 H9         -3.3216   -3.6827    0.3306 H         1 <0>         0.0834
     35 H10         1.4747   -6.0814   -2.7266 H         1 <0>         0.1132
     36 H11         0.4845   -6.7474   -4.8375 H         1 <0>         0.1088
     37 H12        -1.8626   -6.2087   -5.3946 H         1 <0>         0.1181
     38 H13        -4.4020   -4.1437   -5.3691 H         1 <0>         0.0628
     39 H14        -4.5894   -5.8679   -4.9543 H         1 <0>         0.0652
     40 H15        -6.7160   -4.4689   -4.7256 H         1 <0>         0.0621
     41 H16        -6.2403   -5.3583   -3.2582 H         1 <0>         0.0630
     42 H17        -5.4479   -2.4643   -3.7959 H         1 <0>         0.0655
     43 H18        -6.8957   -2.9266   -2.8694 H         1 <0>         0.0657
     44 H19        -5.5532   -4.0641   -1.2003 H         1 <0>         0.0749
     45 H20        -4.8253   -2.4565   -1.4551 H         1 <0>         0.0778
@<TRIPOS>BOND
     1    1    2 1
     2    1   26 1
     3    1   27 1
     4    1   28 1
     5    2    3 1
     6    3    8 ar
     7    3    4 ar
     8    4    5 ar
     9    4   29 1
    10    5    6 ar
    11    5   30 1
    12    6    7 ar
    13    6   31 1
    14    7    8 ar
    15    7    9 1
    16    8   32 1
    17    9   10 1
    18    9   33 1
    19    9   34 1
    20   10   14 1
    21   10   11 1
    22   11   25 1
    23   11   12 2
    24   12   13 1
    25   12   22 1
    26   13   18 ar
    27   13   14 ar
    28   14   15 ar
    29   15   16 ar
    30   15   19 1
    31   16   17 ar
    32   16   35 1
    33   17   18 ar
    34   17   36 1
    35   18   37 1
    36   19   20 2
    37   19   21 1
    38   22   23 1
    39   22   38 1
    40   22   39 1
    41   23   24 1
    42   23   40 1
    43   23   41 1
    44   24   25 1
    45   24   42 1
    46   24   43 1
    47   25   44 1
    48   25   45 1
@<TRIPOS>MOLECULE
CHEMBL184136
   31    32     0     0     0
SMALL
USER_CHARGES

@<TRIPOS>ATOM
      1 C1         -0.0173    1.4248    0.0099 C.3       1 <0>         0.0273
      2 O1          0.0021   -0.0041    0.0020 O.3       1 <0>        -0.3194
      3 C2          0.6058   -0.6071   -1.0557 C.ar      1 <0>         0.1252
      4 C3          1.1730    0.1607   -2.0624 C.ar      1 <0>        -0.2080
      5 C4          1.7865   -0.4547   -3.1363 C.ar      1 <0>        -0.0598
      6 C5          1.8352   -1.8346   -3.2086 C.ar      1 <0>        -0.1028
      7 C6          1.2702   -2.6021   -2.2068 C.ar      1 <0>        -0.0603
      8 C7          0.6609   -1.9915   -1.1277 C.ar      1 <0>        -0.1514
      9 C8          2.5046   -2.5033   -4.3815 C.3       1 <0>        -0.0557
     10 S1          4.2606   -2.7635   -4.0078 S.3       1 <0>        -0.0320
     11 C9          4.8937   -3.5426   -5.4559 C.ar      1 <0>         0.3371
     12 N1          6.1756   -3.8767   -5.5023 N.ar      1 <0>        -0.5570
     13 C10         6.6865   -4.4636   -6.5737 C.ar      1 <0>         0.0954
     14 C11         5.8667   -4.7286   -7.6551 C.ar      1 <0>        -0.2738
     15 C12         4.5230   -4.3654   -7.5764 C.ar      1 <0>         0.4491
     16 N2          4.0754   -3.7849   -6.4697 N.ar      1 <0>        -0.5957
     17 O2          3.6844   -4.6066   -8.6132 O.3       1 <0>        -0.6808
     18 C13         8.1457   -4.8381   -6.6142 C.3       1 <0>         0.5244
     19 F1          8.7297   -4.5733   -5.3709 F         1 <0>        -0.1678
     20 F2          8.2695   -6.2005   -6.9070 F         1 <0>        -0.1768
     21 F3          8.7923   -4.0881   -7.6024 F         1 <0>        -0.1773
     22 H1          1.0053    1.8021    0.0021 H         1 <0>         0.0556
     23 H2         -0.5445    1.7859   -0.8732 H         1 <0>         0.0549
     24 H3         -0.5275    1.7763    0.9067 H         1 <0>         0.0977
     25 H4          1.1347    1.2385   -2.0068 H         1 <0>         0.1281
     26 H5          2.2283    0.1425   -3.9203 H         1 <0>         0.1294
     27 H6          1.3092   -3.6798   -2.2657 H         1 <0>         0.1342
     28 H7          0.2237   -2.5913   -0.3432 H         1 <0>         0.1313
     29 H8          2.0276   -3.4646   -4.5726 H         1 <0>         0.1008
     30 H9          2.4108   -1.8695   -5.2632 H         1 <0>         0.1000
     31 H10         6.2586   -5.2060   -8.5410 H         1 <0>         0.1280
@<TRIPOS>BOND
     1    1    2 1
     2    1   22 1
     3    1   23 1
     4    1   24 1
     5    2    3 1
     6    3    8 ar
     7    3    4 ar
     8    4    5 ar
     9    4   25 1
    10    5    6 ar
    11    5   26 1
    12    6    7 ar
    13    6    9 1
    14    7    8 ar
    15    7   27 1
    16    8   28 1
    17    9   29 1
    18    9   30 1
    19    9   10 1
    20   10   11 1
    21   11   16 ar
    22   11   12 ar
    23   12   13 ar
    24   13   14 ar
    25   13   18 1
    26   14   15 ar
    27   14   31 1
    28   15   16 ar
    29   15   17 1
    30   18   19 1
    31   18   20 1
    32   18   21 1
@<TRIPOS>MOLECULE
CHEMBL394440
   57    61     0     0     0
SMALL
USER_CHARGES

@<TRIPOS>ATOM
      1 C1          0.4004    0.9748    0.1401 C.3       1 <0>        -0.1459
      2 C2          0.0903   -0.5199    0.0377 C.3       1 <0>        -0.0631
      3 C3         -1.3977   -0.7327    0.1452 C.2       1 <0>         0.1051
      4 C4         -2.1158   -0.8197    1.3000 C.2       1 <0>        -0.1880
      5 C5         -3.4740   -1.0199    0.9446 C.2       1 <0>         0.1267
      6 N1         -3.5499   -1.0492   -0.3682 N.2       1 <0>        -0.2406
      7 N2         -2.2640   -0.8663   -0.8910 N.pl3     1 <0>        -0.3102
      8 C6         -1.9291   -0.8298   -2.2489 C.ar      1 <0>         0.1461
      9 C7         -1.2034    0.2368   -2.7588 C.ar      1 <0>        -0.1197
     10 C8         -0.8741    0.2713   -4.1000 C.ar      1 <0>        -0.1137
     11 C9         -1.2650   -0.7553   -4.9420 C.ar      1 <0>        -0.1088
     12 C10        -1.9870   -1.8230   -4.4485 C.ar      1 <0>        -0.0963
     13 C11        -2.3200   -1.8718   -3.0970 C.ar      1 <0>        -0.0074
     14 C12        -3.0910   -3.0198   -2.5605 C.ar      1 <0>        -0.0748
     15 C13        -2.5869   -3.7616   -1.4919 C.ar      1 <0>        -0.0990
     16 C14        -3.3023   -4.8313   -0.9899 C.ar      1 <0>        -0.1373
     17 C15        -4.5202   -5.1746   -1.5413 C.ar      1 <0>        -0.0752
     18 C16        -5.0367   -4.4398   -2.6121 C.ar      1 <0>        -0.1307
     19 C17        -4.3202   -3.3546   -3.1183 C.ar      1 <0>        -0.0561
     20 C18        -6.3384   -4.8070   -3.2020 C.2       1 <0>         0.5212
     21 O1         -6.9670   -5.7554   -2.7540 O.co2     1 <0>        -0.6871
     22 O2         -6.7887   -4.1628   -4.1389 O.co2     1 <0>        -0.6873
     23 C19        -4.6087   -1.1701    1.8870 C.ar      1 <0>        -0.0097
     24 C20        -4.4244   -1.8208    3.1059 C.ar      1 <0>        -0.0878
     25 C21        -5.4842   -1.9578    3.9791 C.ar      1 <0>        -0.1228
     26 C22        -6.7276   -1.4508    3.6468 C.ar      1 <0>        -0.1131
     27 C23        -6.9165   -0.8045    2.4384 C.ar      1 <0>        -0.1208
     28 C24        -5.8625   -0.6562    1.5600 C.ar      1 <0>        -0.0882
     29 C25        -1.5751   -0.7233    2.6781 C.ar      1 <0>         0.0123
     30 C26        -0.6920   -1.6916    3.1522 C.ar      1 <0>        -0.1134
     31 C27        -0.1917   -1.5967    4.4349 C.ar      1 <0>        -0.1181
     32 C28        -0.5653   -0.5430    5.2496 C.ar      1 <0>        -0.1260
     33 C29        -1.4415    0.4209    4.7842 C.ar      1 <0>        -0.1172
     34 C30        -1.9439    0.3389    3.5014 C.ar      1 <0>        -0.1021
     35 H1          1.4634    1.1383   -0.0371 H         1 <0>         0.0649
     36 H2         -0.1800    1.5182   -0.6055 H         1 <0>         0.0556
     37 H3          0.1388    1.3328    1.1358 H         1 <0>         0.0624
     38 H4          0.4433   -0.8994   -0.9212 H         1 <0>         0.0779
     39 H5          0.5926   -1.0514    0.8460 H         1 <0>         0.0908
     40 H6         -0.8958    1.0411   -2.1069 H         1 <0>         0.1305
     41 H7         -0.3093    1.1035   -4.4934 H         1 <0>         0.1301
     42 H8         -1.0042   -0.7206   -5.9894 H         1 <0>         0.1301
     43 H9         -2.2900   -2.6220   -5.1090 H         1 <0>         0.1359
     44 H10        -1.6342   -3.4990   -1.0561 H         1 <0>         0.1001
     45 H11        -2.9068   -5.4018   -0.1626 H         1 <0>         0.1116
     46 H12        -5.0746   -6.0124   -1.1450 H         1 <0>         0.1246
     47 H13        -4.7162   -2.7803   -3.9428 H         1 <0>         0.1243
     48 H14        -3.4541   -2.2174    3.3662 H         1 <0>         0.1235
     49 H15        -5.3427   -2.4621    4.9236 H         1 <0>         0.1223
     50 H16        -7.5542   -1.5603    4.3332 H         1 <0>         0.1211
     51 H17        -7.8897   -0.4113    2.1839 H         1 <0>         0.1241
     52 H18        -6.0100   -0.1472    0.6190 H         1 <0>         0.1249
     53 H19        -0.4000   -2.5148    2.5171 H         1 <0>         0.1195
     54 H20         0.4924   -2.3467    4.8035 H         1 <0>         0.1198
     55 H21        -0.1716   -0.4729    6.2528 H         1 <0>         0.1177
     56 H22        -1.7301    1.2412    5.4247 H         1 <0>         0.1192
     57 H23        -2.6244    1.0944    3.1375 H         1 <0>         0.1182
@<TRIPOS>BOND
     1    1    2 1
     2    1   35 1
     3    1   36 1
     4    1   37 1
     5    2    3 1
     6    2   38 1
     7    2   39 1
     8    3    7 1
     9    3    4 2
    10    4    5 1
    11    4   29 1
    12    5    6 2
    13    5   23 1
    14    6    7 1
    15    7    8 1
    16    8   13 ar
    17    8    9 ar
    18    9   10 ar
    19    9   40 1
    20   10   11 ar
    21   10   41 1
    22   11   12 ar
    23   11   42 1
    24   12   13 ar
    25   12   43 1
    26   13   14 1
    27   14   19 ar
    28   14   15 ar
    29   15   16 ar
    30   15   44 1
    31   16   17 ar
    32   16   45 1
    33   17   18 ar
    34   17   46 1
    35   18   19 ar
    36   18   20 1
    37   19   47 1
    38   20   21 2
    39   20   22 1
    40   23   28 ar
    41   23   24 ar
    42   24   25 ar
    43   24   48 1
    44   25   26 ar
    45   25   49 1
    46   26   27 ar
    47   26   50 1
    48   27   28 ar
    49   27   51 1
    50   28   52 1
    51   29   34 ar
    52   29   30 ar
    53   30   31 ar
    54   30   53 1
    55   31   32 ar
    56   31   54 1
    57   32   33 ar
    58   32   55 1
    59   33   34 ar
    60   33   56 1
    61   34   57 1
@<TRIPOS>MOLECULE
CHEMBL247529
   61    65     0     0     0
SMALL
USER_CHARGES

@<TRIPOS>ATOM
      1 C1         -0.2973    1.1921   -0.5096 C.3       1 <0>        -0.1466
      2 C2         -0.0363   -0.3132   -0.5929 C.3       1 <0>        -0.0533
      3 C3          0.6925   -0.6265   -1.8742 C.2       1 <0>        -0.1401
      4 C4          0.1084   -0.8444   -3.1434 C.2       1 <0>        -0.1237
      5 C5          1.1522   -1.0962   -4.0172 C.2       1 <0>         0.0503
      6 O1          2.3029   -1.0349   -3.3203 O.3       1 <0>        -0.1394
      7 C6          2.0380   -0.7476   -2.0315 C.2       1 <0>         0.0439
      8 C7          3.0435   -0.5927   -0.9634 C.ar      1 <0>        -0.0134
      9 C8          3.0389    0.5443   -0.1540 C.ar      1 <0>        -0.0952
     10 C9          3.9811    0.6836    0.8434 C.ar      1 <0>        -0.1223
     11 C10         4.9353   -0.2994    1.0489 C.ar      1 <0>        -0.1055
     12 C11         4.9558   -1.4305    0.2580 C.ar      1 <0>        -0.1053
     13 C12         4.0097   -1.5925   -0.7502 C.ar      1 <0>        -0.0107
     14 C13         4.0239   -2.8083   -1.5973 C.ar      1 <0>        -0.0192
     15 C14         2.8627   -3.5650   -1.7544 C.ar      1 <0>        -0.1477
     16 C15         2.8786   -4.6965   -2.5443 C.ar      1 <0>        -0.0770
     17 C16         4.0433   -5.0836   -3.1811 C.ar      1 <0>        -0.2094
     18 C17         5.2033   -4.3364   -3.0302 C.ar      1 <0>         0.1424
     19 C18         5.1956   -3.1959   -2.2440 C.ar      1 <0>        -0.1410
     20 O2          6.3456   -4.7209   -3.6581 O.3       1 <0>        -0.2809
     21 C19         6.2800   -5.9038   -4.4572 C.3       1 <0>        -0.0061
     22 C20         7.6304   -6.1716   -5.0701 C.2       1 <0>         0.5015
     23 O3          8.5627   -5.4192   -4.8436 O.co2     1 <0>        -0.6707
     24 O4          7.7908   -7.1406   -5.7925 O.co2     1 <0>        -0.6877
     25 C21         1.0261   -1.3815   -5.4583 C.ar      1 <0>        -0.0185
     26 C22         1.8437   -0.7205   -6.3792 C.ar      1 <0>        -0.0934
     27 C23         1.7200   -0.9925   -7.7255 C.ar      1 <0>        -0.1190
     28 C24         0.7892   -1.9174   -8.1655 C.ar      1 <0>        -0.1080
     29 C25        -0.0241   -2.5755   -7.2596 C.ar      1 <0>        -0.1196
     30 C26         0.0924   -2.3185   -5.9097 C.ar      1 <0>        -0.0824
     31 C27        -1.3364   -0.8105   -3.4730 C.ar      1 <0>        -0.0015
     32 C28        -2.2001   -1.7621   -2.9323 C.ar      1 <0>        -0.1071
     33 C29        -3.5442   -1.7255   -3.2428 C.ar      1 <0>        -0.1187
     34 C30        -4.0350   -0.7475   -4.0891 C.ar      1 <0>        -0.1224
     35 C31        -3.1828    0.1991   -4.6290 C.ar      1 <0>        -0.1178
     36 C32        -1.8379    0.1765   -4.3205 C.ar      1 <0>        -0.1016
     37 H1          0.6534    1.7242   -0.4742 H         1 <0>         0.0552
     38 H2         -0.8605    1.5123   -1.3861 H         1 <0>         0.0558
     39 H3         -0.8705    1.4122    0.3910 H         1 <0>         0.0570
     40 H4          0.5719   -0.6241    0.2565 H         1 <0>         0.0722
     41 H5         -0.9859   -0.8481   -0.5750 H         1 <0>         0.0723
     42 H6          2.2980    1.3148   -0.3088 H         1 <0>         0.1309
     43 H7          3.9752    1.5647    1.4679 H         1 <0>         0.1272
     44 H8          5.6684   -0.1798    1.8329 H         1 <0>         0.1274
     45 H9          5.7032   -2.1921    0.4244 H         1 <0>         0.1322
     46 H10         1.9516   -3.2658   -1.2578 H         1 <0>         0.1147
     47 H11         1.9789   -5.2816   -2.6651 H         1 <0>         0.1189
     48 H12         4.0506   -5.9704   -3.7976 H         1 <0>         0.1273
     49 H13         6.0964   -2.6112   -2.1293 H         1 <0>         0.1298
     50 H14         5.9905   -6.7488   -3.8325 H         1 <0>         0.0589
     51 H15         5.5426   -5.7674   -5.2483 H         1 <0>         0.0585
     52 H16         2.5702    0.0017   -6.0373 H         1 <0>         0.1254
     53 H17         2.3508   -0.4823   -8.4383 H         1 <0>         0.1270
     54 H18         0.6969   -2.1263   -9.2210 H         1 <0>         0.1246
     55 H19        -0.7485   -3.2957   -7.6102 H         1 <0>         0.1263
     56 H20        -0.5394   -2.8366   -5.2034 H         1 <0>         0.1243
     57 H21        -1.8180   -2.5265   -2.2720 H         1 <0>         0.1213
     58 H22        -4.2142   -2.4621   -2.8245 H         1 <0>         0.1214
     59 H23        -5.0876   -0.7230   -4.3296 H         1 <0>         0.1192
     60 H24        -3.5714    0.9598   -5.2897 H         1 <0>         0.1206
     61 H25        -1.1743    0.9189   -4.7387 H         1 <0>         0.1186
@<TRIPOS>BOND
     1    1    2 1
     2    1   37 1
     3    1   38 1
     4    1   39 1
     5    2    3 1
     6    2   40 1
     7    2   41 1
     8    3    7 2
     9    3    4 1
    10    4    5 2
    11    4   31 1
    12    5    6 1
    13    5   25 1
    14    6    7 1
    15    7    8 1
    16    8   13 ar
    17    8    9 ar
    18    9   10 ar
    19    9   42 1
    20   10   11 ar
    21   10   43 1
    22   11   12 ar
    23   11   44 1
    24   12   13 ar
    25   12   45 1
    26   13   14 1
    27   14   19 ar
    28   14   15 ar
    29   15   16 ar
    30   15   46 1
    31   16   17 ar
    32   16   47 1
    33   17   18 ar
    34   17   48 1
    35   18   19 ar
    36   18   20 1
    37   19   49 1
    38   20   21 1
    39   21   22 1
    40   21   50 1
    41   21   51 1
    42   22   23 2
    43   22   24 1
    44   25   30 ar
    45   25   26 ar
    46   26   27 ar
    47   26   52 1
    48   27   28 ar
    49   27   53 1
    50   28   29 ar
    51   28   54 1
    52   29   30 ar
    53   29   55 1
    54   30   56 1
    55   31   36 ar
    56   31   32 ar
    57   32   33 ar
    58   32   57 1
    59   33   34 ar
    60   33   58 1
    61   34   35 ar
    62   34   59 1
    63   35   36 ar
    64   35   60 1
    65   36   61 1
@<TRIPOS>MOLECULE
CHEMBL475549
   45    48     0     0     0
SMALL
USER_CHARGES

@<TRIPOS>ATOM
      1 C1          1.1981    1.5465   -0.8343 C.3       1 <0>         0.0264
      2 O1          0.8261    0.1684   -0.7681 O.3       1 <0>        -0.3114
      3 C2          0.9731   -0.5655   -1.9024 C.ar      1 <0>         0.1308
      4 C3          1.4706    0.0273   -3.0541 C.ar      1 <0>        -0.2197
      5 C4          1.6194   -0.7209   -4.2055 C.ar      1 <0>        -0.0834
      6 C5          1.2730   -2.0597   -4.2113 C.ar      1 <0>        -0.1555
      7 C6          0.7767   -2.6525   -3.0653 C.ar      1 <0>        -0.0627
      8 C7          0.6313   -1.9099   -1.9093 C.ar      1 <0>        -0.1317
      9 C8          0.0961   -2.5583   -0.6586 C.3       1 <0>         0.1222
     10 N1         -1.3600   -2.6851   -0.7591 N.pl3     1 <0>        -0.4497
     11 C9         -2.2577   -1.6820   -0.4981 C.2       1 <0>         0.0776
     12 C10        -3.5152   -2.1351   -0.6880 C.2       1 <0>        -0.1912
     13 C11        -3.4090   -3.5206   -1.0983 C.ar      1 <0>        -0.1038
     14 C12        -2.0211   -3.8121   -1.1302 C.ar      1 <0>         0.1187
     15 C13        -1.5681   -5.0933   -1.5002 C.ar      1 <0>        -0.1215
     16 C14        -2.5493   -6.0386   -1.8301 C.ar      1 <0>        -0.1004
     17 C15        -3.8952   -5.7381   -1.7971 C.ar      1 <0>        -0.1501
     18 C16        -4.3633   -4.4863   -1.4284 C.ar      1 <0>        -0.0954
     19 C17        -0.1349   -5.4233   -1.5390 C.2       1 <0>         0.5342
     20 O2          0.4141   -5.6406   -2.6106 O.co2     1 <0>        -0.6737
     21 O3          0.5081   -5.4805   -0.4996 O.co2     1 <0>        -0.6783
     22 C18        -4.7589   -1.3064   -0.4920 C.3       1 <0>        -0.0342
     23 C19        -4.3926   -0.0636    0.3281 C.3       1 <0>        -0.1174
     24 C20        -3.1641    0.6080   -0.2922 C.3       1 <0>        -0.1092
     25 C21        -1.9309   -0.2727   -0.0634 C.3       1 <0>        -0.0663
     26 H1          2.2522    1.6260   -1.1001 H         1 <0>         0.0533
     27 H2          0.5941    2.0500   -1.5891 H         1 <0>         0.0529
     28 H3          1.0317    2.0148    0.1358 H         1 <0>         0.0971
     29 H4          1.7409    1.0729   -3.0502 H         1 <0>         0.1232
     30 H5          2.0062   -0.2598   -5.1023 H         1 <0>         0.1196
     31 H6          1.3901   -2.6430   -5.1126 H         1 <0>         0.1231
     32 H7          0.5066   -3.6982   -3.0723 H         1 <0>         0.1678
     33 H8          0.5398   -3.5472   -0.5436 H         1 <0>         0.1446
     34 H9          0.3485   -1.9440    0.2057 H         1 <0>         0.0859
     35 H10        -2.2420   -7.0328   -2.1193 H         1 <0>         0.1124
     36 H11        -4.6081   -6.5051   -2.0613 H         1 <0>         0.1081
     37 H12        -5.4199   -4.2638   -1.4079 H         1 <0>         0.1174
     38 H13        -5.1527   -1.0020   -1.4618 H         1 <0>         0.0614
     39 H14        -5.5075   -1.8906    0.0431 H         1 <0>         0.0641
     40 H15        -5.2297    0.6345    0.3244 H         1 <0>         0.0605
     41 H16        -4.1679   -0.3575    1.3534 H         1 <0>         0.0624
     42 H17        -3.3233    0.7394   -1.3624 H         1 <0>         0.0624
     43 H18        -3.0075    1.5807    0.1741 H         1 <0>         0.0631
     44 H19        -1.6688   -0.2677    0.9946 H         1 <0>         0.0718
     45 H20        -1.0957    0.1073   -0.6517 H         1 <0>         0.0947
@<TRIPOS>BOND
     1    1    2 1
     2    1   26 1
     3    1   27 1
     4    1   28 1
     5    2    3 1
     6    3    8 ar
     7    3    4 ar
     8    4    5 ar
     9    4   29 1
    10    5    6 ar
    11    5   30 1
    12    6    7 ar
    13    6   31 1
    14    7    8 ar
    15    7   32 1
    16    8    9 1
    17    9   10 1
    18    9   33 1
    19    9   34 1
    20   10   14 1
    21   10   11 1
    22   11   25 1
    23   11   12 2
    24   12   13 1
    25   12   22 1
    26   13   18 ar
    27   13   14 ar
    28   14   15 ar
    29   15   16 ar
    30   15   19 1
    31   16   17 ar
    32   16   35 1
    33   17   18 ar
    34   17   36 1
    35   18   37 1
    36   19   20 2
    37   19   21 1
    38   22   23 1
    39   22   38 1
    40   22   39 1
    41   23   24 1
    42   23   40 1
    43   23   41 1
    44   24   25 1
    45   24   42 1
    46   24   43 1
    47   25   44 1
    48   25   45 1
@<TRIPOS>MOLECULE
CHEMBL518180
   44    47     0     0     0
SMALL
USER_CHARGES

@<TRIPOS>ATOM
      1 C1         -0.4999    1.6276    0.6605 C.ar      1 <0>        -0.1310
      2 C2          0.5679    2.4938    0.5146 C.ar      1 <0>        -0.0936
      3 C3          1.8313    1.9967    0.2574 C.ar      1 <0>        -0.1685
      4 C4          2.0277    0.6304    0.1458 C.ar      1 <0>         0.1024
      5 C5          0.9578   -0.2358    0.2920 C.ar      1 <0>        -0.1370
      6 C6         -0.3051    0.2637    0.5493 C.ar      1 <0>        -0.0761
      7 C7          1.1698   -1.7229    0.1703 C.3       1 <0>         0.1122
      8 N1          1.4393   -2.2878    1.4949 N.pl3     1 <0>        -0.4584
      9 C8          2.6683   -2.3126    2.1027 C.2       1 <0>         0.0830
     10 C9          2.5620   -2.9030    3.3039 C.2       1 <0>        -0.1816
     11 C10         1.1579   -3.2767    3.4805 C.ar      1 <0>        -0.1071
     12 C11         0.4992   -2.8625    2.3085 C.ar      1 <0>         0.1248
     13 C12        -0.8824   -3.0902    2.1795 C.ar      1 <0>        -0.1254
     14 C13        -1.5771   -3.7139    3.2164 C.ar      1 <0>        -0.0939
     15 C14        -0.9168   -4.1076    4.3653 C.ar      1 <0>        -0.1488
     16 C15         0.4404   -3.9008    4.5015 C.ar      1 <0>        -0.0934
     17 C16        -1.5909   -2.6730    0.9594 C.2       1 <0>         0.5304
     18 O1         -2.4512   -1.8050    1.0180 O.co2     1 <0>        -0.6736
     19 O2         -1.3197   -3.1941   -0.1139 O.co2     1 <0>        -0.6783
     20 C17         3.6864   -3.1453    4.2768 C.3       1 <0>        -0.0336
     21 C18         4.7684   -2.0808    4.0781 C.3       1 <0>        -0.1230
     22 C19         5.7674   -2.5603    3.0278 C.3       1 <0>        -0.1162
     23 C20         5.0714   -2.7762    1.6868 C.3       1 <0>        -0.1126
     24 C21         3.9447   -1.7547    1.5186 C.3       1 <0>        -0.0693
     25 F1          3.2624    0.1433   -0.1061 F         1 <0>        -0.1376
     26 H1         -1.4862    2.0168    0.8659 H         1 <0>         0.1287
     27 H2          0.4145    3.5593    0.6014 H         1 <0>         0.1274
     28 H3          2.6652    2.6734    0.1432 H         1 <0>         0.1296
     29 H4         -1.1398   -0.4119    0.6638 H         1 <0>         0.1760
     30 H5          0.2746   -2.1846   -0.2463 H         1 <0>         0.1533
     31 H6          2.0178   -1.9164   -0.4867 H         1 <0>         0.0828
     32 H7         -2.6384   -3.8901    3.1209 H         1 <0>         0.1174
     33 H8         -1.4673   -4.5877    5.1609 H         1 <0>         0.1133
     34 H9          0.9457   -4.2118    5.4039 H         1 <0>         0.1104
     35 H10         3.3038   -3.0890    5.2959 H         1 <0>         0.0625
     36 H11         4.1119   -4.1334    4.1020 H         1 <0>         0.0626
     37 H12         4.3070   -1.1518    3.7433 H         1 <0>         0.0687
     38 H13         5.2871   -1.9095    5.0214 H         1 <0>         0.0587
     39 H14         6.5518   -1.8126    2.9097 H         1 <0>         0.0567
     40 H15         6.2128   -3.4990    3.3572 H         1 <0>         0.0601
     41 H16         5.7939   -2.6551    0.8797 H         1 <0>         0.0634
     42 H17         4.6558   -3.7832    1.6521 H         1 <0>         0.0665
     43 H18         3.7986   -1.5461    0.4588 H         1 <0>         0.0868
     44 H19         4.2093   -0.8332    2.0372 H         1 <0>         0.0814
@<TRIPOS>BOND
     1    1    6 ar
     2    1    2 ar
     3    1   26 1
     4    2    3 ar
     5    2   27 1
     6    3    4 ar
     7    3   28 1
     8    4    5 ar
     9    4   25 1
    10    5    6 ar
    11    5    7 1
    12    6   29 1
    13    7    8 1
    14    7   30 1
    15    7   31 1
    16    8   12 1
    17    8    9 1
    18    9   24 1
    19    9   10 2
    20   10   11 1
    21   10   20 1
    22   11   16 ar
    23   11   12 ar
    24   12   13 ar
    25   13   14 ar
    26   13   17 1
    27   14   15 ar
    28   14   32 1
    29   15   16 ar
    30   15   33 1
    31   16   34 1
    32   17   18 2
    33   17   19 1
    34   20   21 1
    35   20   35 1
    36   20   36 1
    37   21   22 1
    38   21   37 1
    39   21   38 1
    40   22   23 1
    41   22   39 1
    42   22   40 1
    43   23   24 1
    44   23   41 1
    45   23   42 1
    46   24   43 1
    47   24   44 1
@<TRIPOS>MOLECULE
CHEMBL460749
   44    47     0     0     0
SMALL
USER_CHARGES

@<TRIPOS>ATOM
      1 C1         -0.2707    0.2957    0.6883 C.ar      1 <0>        -0.1057
      2 C2          0.7634    1.2053    0.5658 C.ar      1 <0>        -0.1236
      3 C3          2.0583    0.7600    0.3779 C.ar      1 <0>        -0.0783
      4 C4          2.3209   -0.5954    0.3118 C.ar      1 <0>        -0.1325
      5 C5          1.2863   -1.5071    0.4343 C.ar      1 <0>         0.0961
      6 C6         -0.0106   -1.0598    0.6230 C.ar      1 <0>        -0.1559
      7 F1          1.5417   -2.8322    0.3694 F         1 <0>        -0.1385
      8 C7          3.1843    1.7527    0.2446 C.3       1 <0>         0.1157
      9 N1          3.6299    2.1676    1.5770 N.pl3     1 <0>        -0.4590
     10 C8          3.0377    3.1461    2.3337 C.2       1 <0>         0.0788
     11 C9          3.6976    3.2744    3.4959 C.2       1 <0>        -0.1776
     12 C10         4.7891    2.2993    3.4845 C.ar      1 <0>        -0.1069
     13 C11         4.6949    1.6306    2.2505 C.ar      1 <0>         0.1243
     14 C12         5.6245    0.6214    1.9427 C.ar      1 <0>        -0.1214
     15 C13         6.6173    0.2947    2.8671 C.ar      1 <0>        -0.0955
     16 C14         6.6915    0.9555    4.0791 C.ar      1 <0>        -0.1466
     17 C15         5.7933    1.9554    4.3903 C.ar      1 <0>        -0.0953
     18 C16         5.5504   -0.0858    0.6547 C.2       1 <0>         0.5289
     19 O1          5.2310   -1.2664    0.6225 O.co2     1 <0>        -0.6726
     20 O2          5.8081    0.5068   -0.3842 O.co2     1 <0>        -0.6813
     21 C17         3.3771    4.2527    4.5958 C.3       1 <0>        -0.0347
     22 C18         1.8825    4.5821    4.5631 C.3       1 <0>        -0.1235
     23 C19         1.6432    5.7701    3.6344 C.3       1 <0>        -0.1166
     24 C20         2.0795    5.4328    2.2112 C.3       1 <0>        -0.1137
     25 C21         1.8248    3.9506    1.9299 C.3       1 <0>        -0.0576
     26 H1         -1.2815    0.6447    0.8396 H         1 <0>         0.1278
     27 H2          0.5590    2.2646    0.6167 H         1 <0>         0.1247
     28 H3          3.3327   -0.9431    0.1643 H         1 <0>         0.1777
     29 H4         -0.8185   -1.7701    0.7190 H         1 <0>         0.1296
     30 H5          4.0150    1.2904   -0.2887 H         1 <0>         0.1443
     31 H6          2.8365    2.6242   -0.3100 H         1 <0>         0.0859
     32 H7          7.3327   -0.4801    2.6343 H         1 <0>         0.1170
     33 H8          7.4640    0.6912    4.7861 H         1 <0>         0.1136
     34 H9          5.8602    2.4643    5.3405 H         1 <0>         0.1107
     35 H10         3.6313    3.8121    5.5598 H         1 <0>         0.0631
     36 H11         3.9539    5.1659    4.4497 H         1 <0>         0.0632
     37 H12         1.3279    3.7178    4.1977 H         1 <0>         0.0695
     38 H13         1.5436    4.8327    5.5683 H         1 <0>         0.0595
     39 H14         0.5822    6.0197    3.6358 H         1 <0>         0.0575
     40 H15         2.2142    6.6269    3.9921 H         1 <0>         0.0612
     41 H16         1.5118    6.0386    1.5049 H         1 <0>         0.0648
     42 H17         3.1424    5.6459    2.0978 H         1 <0>         0.0687
     43 H18         1.6335    3.8104    0.8660 H         1 <0>         0.0689
     44 H19         0.9595    3.6156    2.5019 H         1 <0>         0.0854
@<TRIPOS>BOND
     1    1    6 ar
     2    1    2 ar
     3    1   26 1
     4    2    3 ar
     5    2   27 1
     6    3    4 ar
     7    3    8 1
     8    4    5 ar
     9    4   28 1
    10    5    6 ar
    11    5    7 1
    12    6   29 1
    13    8    9 1
    14    8   30 1
    15    8   31 1
    16    9   13 1
    17    9   10 1
    18   10   25 1
    19   10   11 2
    20   11   12 1
    21   11   21 1
    22   12   17 ar
    23   12   13 ar
    24   13   14 ar
    25   14   15 ar
    26   14   18 1
    27   15   16 ar
    28   15   32 1
    29   16   17 ar
    30   16   33 1
    31   17   34 1
    32   18   19 2
    33   18   20 1
    34   21   22 1
    35   21   35 1
    36   21   36 1
    37   22   23 1
    38   22   37 1
    39   22   38 1
    40   23   24 1
    41   23   39 1
    42   23   40 1
    43   24   25 1
    44   24   41 1
    45   24   42 1
    46   25   43 1
    47   25   44 1
@<TRIPOS>MOLECULE
CHEMBL518181
   44    47     0     0     0
SMALL
USER_CHARGES

@<TRIPOS>ATOM
      1 C1          0.7014    2.1704    0.5477 C.ar      1 <0>        -0.1468
      2 C2          1.9057    2.6146    0.0419 C.ar      1 <0>        -0.0952
      3 C3          2.8824    1.6962   -0.3448 C.ar      1 <0>        -0.1069
      4 C4          4.2315    1.8173   -0.8993 C.2       1 <0>        -0.1777
      5 C5          4.7013    0.5723   -1.0781 C.2       1 <0>         0.0787
      6 N1          3.7569   -0.3355   -0.6723 N.pl3     1 <0>        -0.4591
      7 C6          2.6397    0.3161   -0.2209 C.ar      1 <0>         0.1245
      8 C7          1.4078   -0.1214    0.2970 C.ar      1 <0>        -0.1215
      9 C8          0.4482    0.8176    0.6770 C.ar      1 <0>        -0.0958
     10 C9          1.1324   -1.5598    0.4373 C.2       1 <0>         0.5301
     11 O1          0.3017   -2.0967   -0.2829 O.co2     1 <0>        -0.6746
     12 O2          1.7341   -2.2191    1.2741 O.co2     1 <0>        -0.6806
     13 C10         3.9192   -1.7908   -0.7152 C.3       1 <0>         0.1186
     14 C11         3.5852   -2.2930   -2.0963 C.ar      1 <0>        -0.1170
     15 C12         2.3234   -2.7903   -2.3641 C.ar      1 <0>        -0.0686
     16 C13         2.0159   -3.2506   -3.6303 C.ar      1 <0>        -0.1535
     17 C14         2.9721   -3.2136   -4.6310 C.ar      1 <0>         0.0941
     18 C15         4.2356   -2.7153   -4.3617 C.ar      1 <0>        -0.1679
     19 C16         4.5392   -2.2507   -3.0960 C.ar      1 <0>        -0.0837
     20 F1          2.6727   -3.6638   -5.8691 F         1 <0>        -0.1462
     21 C17         6.0570    0.2288   -1.6487 C.3       1 <0>        -0.0580
     22 C18         7.1276    1.0859   -0.9702 C.3       1 <0>        -0.1135
     23 C19         7.3031    2.3941   -1.7365 C.3       1 <0>        -0.1167
     24 C20         5.9723    2.8484   -2.3311 C.3       1 <0>        -0.1236
     25 C21         4.9675    3.0962   -1.2031 C.3       1 <0>        -0.0348
     26 H1         -0.0487    2.8864    0.8496 H         1 <0>         0.1133
     27 H2          2.0926    3.6739   -0.0550 H         1 <0>         0.1105
     28 H3         -0.4991    0.4852    1.0749 H         1 <0>         0.1168
     29 H4          4.9505   -2.0487   -0.4744 H         1 <0>         0.0837
     30 H5          3.2502   -2.2527    0.0109 H         1 <0>         0.1425
     31 H6          1.5778   -2.8194   -1.5833 H         1 <0>         0.1761
     32 H7          1.0302   -3.6394   -3.8391 H         1 <0>         0.1344
     33 H8          4.9823   -2.6863   -5.1413 H         1 <0>         0.1298
     34 H9          5.5232   -1.8578   -2.8869 H         1 <0>         0.1276
     35 H10         6.2694   -0.8255   -1.4714 H         1 <0>         0.0687
     36 H11         6.0602    0.4249   -2.7209 H         1 <0>         0.0852
     37 H12         6.8228    1.3035    0.0534 H         1 <0>         0.0688
     38 H13         8.0728    0.5431   -0.9585 H         1 <0>         0.0647
     39 H14         7.6745    3.1616   -1.0575 H         1 <0>         0.0613
     40 H15         8.0243    2.2462   -2.5403 H         1 <0>         0.0575
     41 H16         6.1214    3.7700   -2.8937 H         1 <0>         0.0595
     42 H17         5.5885    2.0749   -2.9962 H         1 <0>         0.0694
     43 H18         4.2551    3.8610   -1.5123 H         1 <0>         0.0631
     44 H19         5.4972    3.4314   -0.3114 H         1 <0>         0.0631
@<TRIPOS>BOND
     1    1    9 ar
     2    1    2 ar
     3    1   26 1
     4    2    3 ar
     5    2   27 1
     6    3    7 ar
     7    3    4 1
     8    4   25 1
     9    4    5 2
    10    5    6 1
    11    5   21 1
    12    6    7 1
    13    6   13 1
    14    7    8 ar
    15    8    9 ar
    16    8   10 1
    17    9   28 1
    18   10   11 2
    19   10   12 1
    20   13   14 1
    21   13   29 1
    22   13   30 1
    23   14   19 ar
    24   14   15 ar
    25   15   16 ar
    26   15   31 1
    27   16   17 ar
    28   16   32 1
    29   17   18 ar
    30   17   20 1
    31   18   19 ar
    32   18   33 1
    33   19   34 1
    34   21   22 1
    35   21   35 1
    36   21   36 1
    37   22   23 1
    38   22   37 1
    39   22   38 1
    40   23   24 1
    41   23   39 1
    42   23   40 1
    43   24   25 1
    44   24   41 1
    45   24   42 1
    46   25   43 1
    47   25   44 1
@<TRIPOS>MOLECULE
CHEMBL460750
   47    50     0     0     0
SMALL
USER_CHARGES

@<TRIPOS>ATOM
      1 C1         -1.4927    1.2816    1.7376 C.ar      1 <0>        -0.0840
      2 C2         -1.0897    2.4932    1.2073 C.ar      1 <0>        -0.1246
      3 C3          0.0730    2.5696    0.4639 C.ar      1 <0>        -0.0797
      4 C4          0.8332    1.4347    0.2509 C.ar      1 <0>        -0.1829
      5 C5          0.4308    0.2237    0.7818 C.ar      1 <0>        -0.0423
      6 C6         -0.7329    0.1469    1.5242 C.ar      1 <0>        -0.0806
      7 C7          1.2590   -1.0137    0.5488 C.3       1 <0>         0.1105
      8 N1          1.4612   -1.7125    1.8204 N.pl3     1 <0>        -0.4622
      9 C8          2.3788   -1.3558    2.7751 C.2       1 <0>         0.0849
     10 C9          2.3023   -2.2077    3.8100 C.2       1 <0>        -0.1777
     11 C10         1.2516   -3.1774    3.4967 C.ar      1 <0>        -0.1035
     12 C11         0.7574   -2.8135    2.2309 C.ar      1 <0>         0.1195
     13 C12        -0.2757   -3.5720    1.6523 C.ar      1 <0>        -0.1204
     14 C13        -0.7981   -4.6649    2.3447 C.ar      1 <0>        -0.0967
     15 C14        -0.3073   -5.0046    3.5915 C.ar      1 <0>        -0.1449
     16 C15         0.7137   -4.2766    4.1669 C.ar      1 <0>        -0.0960
     17 C16        -0.8027   -3.2151    0.3258 C.2       1 <0>         0.5258
     18 O1         -1.9182   -2.7232    0.2228 O.co2     1 <0>        -0.6769
     19 O2         -0.1254   -3.4103   -0.6743 O.co2     1 <0>        -0.6834
     20 C17         3.1535   -2.1740    5.0526 C.3       1 <0>        -0.0342
     21 C18         3.6044   -0.7359    5.3207 C.3       1 <0>        -0.1227
     22 C19         4.9176   -0.4693    4.5890 C.3       1 <0>        -0.1166
     23 C20         4.7323   -0.6286    3.0824 C.3       1 <0>        -0.1110
     24 C21         3.3243   -0.1813    2.6845 C.3       1 <0>        -0.0824
     25 C22         2.1004    1.5178   -0.5605 C.3       1 <0>         0.5052
     26 F1          2.2409    2.8114   -1.0746 F         1 <0>        -0.1777
     27 F2          3.1969    1.2186    0.2552 F         1 <0>        -0.1700
     28 F3          2.0398    0.6008   -1.6153 F         1 <0>        -0.1693
     29 H1         -2.3988    1.2227    2.3223 H         1 <0>         0.1316
     30 H2         -1.6835    3.3798    1.3737 H         1 <0>         0.1320
     31 H3          0.3875    3.5159    0.0491 H         1 <0>         0.1357
     32 H4         -1.0478   -0.7995    1.9384 H         1 <0>         0.1390
     33 H5          0.7408   -1.6716   -0.1490 H         1 <0>         0.1528
     34 H6          2.2255   -0.7307    0.1319 H         1 <0>         0.0845
     35 H7         -1.5919   -5.2495    1.9035 H         1 <0>         0.1168
     36 H8         -0.7222   -5.8520    4.1171 H         1 <0>         0.1137
     37 H9          1.0887   -4.5506    5.1419 H         1 <0>         0.1111
     38 H10         2.5732   -2.5373    5.9008 H         1 <0>         0.0632
     39 H11         4.0281   -2.8090    4.9115 H         1 <0>         0.0632
     40 H12         2.8422   -0.0436    4.9632 H         1 <0>         0.0691
     41 H13         3.7500   -0.5945    6.3917 H         1 <0>         0.0589
     42 H14         5.2501    0.5460    4.8052 H         1 <0>         0.0569
     43 H15         5.6721   -1.1757    4.9353 H         1 <0>         0.0605
     44 H16         5.4681   -0.0171    2.5601 H         1 <0>         0.0638
     45 H17         4.8714   -1.6745    2.8087 H         1 <0>         0.0670
     46 H18         3.3382    0.1958    1.6619 H         1 <0>         0.0924
     47 H19         2.9895    0.6074    3.3582 H         1 <0>         0.0816
@<TRIPOS>BOND
     1    1    6 ar
     2    1    2 ar
     3    1   29 1
     4    2    3 ar
     5    2   30 1
     6    3    4 ar
     7    3   31 1
     8    4    5 ar
     9    4   25 1
    10    5    6 ar
    11    5    7 1
    12    6   32 1
    13    7    8 1
    14    7   33 1
    15    7   34 1
    16    8   12 1
    17    8    9 1
    18    9   24 1
    19    9   10 2
    20   10   11 1
    21   10   20 1
    22   11   16 ar
    23   11   12 ar
    24   12   13 ar
    25   13   14 ar
    26   13   17 1
    27   14   15 ar
    28   14   35 1
    29   15   16 ar
    30   15   36 1
    31   16   37 1
    32   17   18 2
    33   17   19 1
    34   20   21 1
    35   20   38 1
    36   20   39 1
    37   21   22 1
    38   21   40 1
    39   21   41 1
    40   22   23 1
    41   22   42 1
    42   22   43 1
    43   23   24 1
    44   23   44 1
    45   23   45 1
    46   24   46 1
    47   24   47 1
    48   25   26 1
    49   25   27 1
    50   25   28 1
@<TRIPOS>MOLECULE
CHEMBL245284
   61    65     0     0     0
SMALL
USER_CHARGES

@<TRIPOS>ATOM
      1 C1         -0.2644    1.1144    0.2213 C.3       1 <0>        -0.1700
      2 C2         -0.0517   -0.3881    0.0265 C.3       1 <0>         0.0931
      3 N1          0.5806   -0.6274   -1.2732 N.pl3     1 <0>        -0.4404
      4 C3         -0.0588   -0.7222   -2.4875 C.2       1 <0>         0.0234
      5 C4          0.9279   -0.9504   -3.4326 C.2       1 <0>         0.0699
      6 N2          2.1070   -0.9880   -2.7925 N.2       1 <0>        -0.4347
      7 C5          1.9161   -0.7921   -1.5071 C.2       1 <0>         0.2596
      8 C6          2.9758   -0.7584   -0.4796 C.ar      1 <0>        -0.0091
      9 C7          3.0373    0.2967    0.4309 C.ar      1 <0>        -0.1062
     10 C8          4.0291    0.3230    1.3891 C.ar      1 <0>        -0.1219
     11 C9          4.9678   -0.6936    1.4546 C.ar      1 <0>        -0.1039
     12 C10         4.9225   -1.7455    0.5619 C.ar      1 <0>        -0.1046
     13 C11         3.9259   -1.7926   -0.4089 C.ar      1 <0>         0.0047
     14 C12         3.8701   -2.9229   -1.3657 C.ar      1 <0>        -0.0078
     15 C13         2.7070   -3.6838   -1.4825 C.ar      1 <0>        -0.1425
     16 C14         2.6579   -4.7358   -2.3742 C.ar      1 <0>        -0.0766
     17 C15         3.7591   -5.0388   -3.1536 C.ar      1 <0>        -0.2086
     18 C16         4.9207   -4.2870   -3.0434 C.ar      1 <0>         0.1437
     19 C17         4.9774   -3.2252   -2.1556 C.ar      1 <0>        -0.1343
     20 O1          6.0007   -4.5889   -3.8113 O.3       1 <0>        -0.2814
     21 C18         5.8699   -5.6925   -4.7096 C.3       1 <0>        -0.0052
     22 C19         7.1573   -5.8755   -5.4712 C.2       1 <0>         0.5017
     23 O2          8.0995   -5.1301   -5.2639 O.co2     1 <0>        -0.6709
     24 O3          7.2566   -6.7691   -6.2947 O.co2     1 <0>        -0.6890
     25 C20         0.7190   -1.1227   -4.8893 C.ar      1 <0>        -0.0013
     26 C21        -0.4262   -1.7634   -5.3613 C.ar      1 <0>        -0.1018
     27 C22        -0.6155   -1.9204   -6.7191 C.ar      1 <0>        -0.1221
     28 C23         0.3280   -1.4437   -7.6115 C.ar      1 <0>        -0.1187
     29 C24         1.4663   -0.8077   -7.1493 C.ar      1 <0>        -0.1196
     30 C25         1.6639   -0.6396   -5.7940 C.ar      1 <0>        -0.0893
     31 C26        -1.5091   -0.6045   -2.7344 C.ar      1 <0>        -0.0063
     32 C27        -2.4183   -1.2618   -1.9019 C.ar      1 <0>        -0.1156
     33 C28        -3.7722   -1.1474   -2.1386 C.ar      1 <0>        -0.1168
     34 C29        -4.2307   -0.3838   -3.1977 C.ar      1 <0>        -0.1175
     35 C30        -3.3359    0.2700   -4.0264 C.ar      1 <0>        -0.1145
     36 C31        -1.9794    0.1693   -3.7982 C.ar      1 <0>        -0.0885
     37 H1          0.6796    1.6377    0.0693 H         1 <0>         0.0659
     38 H2         -0.9992    1.4738   -0.4992 H         1 <0>         0.0649
     39 H3         -0.6252    1.3022    1.2325 H         1 <0>         0.0782
     40 H4          0.5916   -0.7698    0.8193 H         1 <0>         0.0969
     41 H5         -1.0140   -0.8989    0.0618 H         1 <0>         0.0935
     42 H6          2.3089    1.0928    0.3854 H         1 <0>         0.1245
     43 H7          4.0744    1.1413    2.0924 H         1 <0>         0.1261
     44 H8          5.7403   -0.6628    2.2087 H         1 <0>         0.1279
     45 H9          5.6579   -2.5343    0.6194 H         1 <0>         0.1336
     46 H10         1.8453   -3.4500   -0.8749 H         1 <0>         0.1038
     47 H11         1.7568   -5.3245   -2.4634 H         1 <0>         0.1149
     48 H12         3.7154   -5.8631   -3.8499 H         1 <0>         0.1252
     49 H13         5.8790   -2.6365   -2.0723 H         1 <0>         0.1282
     50 H14         5.6507   -6.5978   -4.1435 H         1 <0>         0.0576
     51 H15         5.0580   -5.4965   -5.4101 H         1 <0>         0.0583
     52 H16        -1.1633   -2.1362   -4.6655 H         1 <0>         0.1190
     53 H17        -1.5018   -2.4167   -7.0858 H         1 <0>         0.1200
     54 H18         0.1755   -1.5689   -8.6733 H         1 <0>         0.1197
     55 H19         2.1997   -0.4382   -7.8507 H         1 <0>         0.1231
     56 H20         2.5507   -0.1389   -5.4345 H         1 <0>         0.1259
     57 H21        -2.0618   -1.8583   -1.0752 H         1 <0>         0.1190
     58 H22        -4.4763   -1.6552   -1.4961 H         1 <0>         0.1232
     59 H23        -5.2920   -0.2980   -3.3786 H         1 <0>         0.1222
     60 H24        -3.7008    0.8643   -4.8511 H         1 <0>         0.1253
     61 H25        -1.2823    0.6837   -4.4430 H         1 <0>         0.1262
@<TRIPOS>BOND
     1    1    2 1
     2    1   37 1
     3    1   38 1
     4    1   39 1
     5    2    3 1
     6    2   40 1
     7    2   41 1
     8    3    7 1
     9    3    4 1
    10    4    5 2
    11    4   31 1
    12    5    6 1
    13    5   25 1
    14    6    7 2
    15    7    8 1
    16    8   13 ar
    17    8    9 ar
    18    9   10 ar
    19    9   42 1
    20   10   11 ar
    21   10   43 1
    22   11   12 ar
    23   11   44 1
    24   12   13 ar
    25   12   45 1
    26   13   14 1
    27   14   19 ar
    28   14   15 ar
    29   15   16 ar
    30   15   46 1
    31   16   17 ar
    32   16   47 1
    33   17   18 ar
    34   17   48 1
    35   18   19 ar
    36   18   20 1
    37   19   49 1
    38   20   21 1
    39   21   22 1
    40   21   50 1
    41   21   51 1
    42   22   23 2
    43   22   24 1
    44   25   30 ar
    45   25   26 ar
    46   26   27 ar
    47   26   52 1
    48   27   28 ar
    49   27   53 1
    50   28   29 ar
    51   28   54 1
    52   29   30 ar
    53   29   55 1
    54   30   56 1
    55   31   36 ar
    56   31   32 ar
    57   32   33 ar
    58   32   57 1
    59   33   34 ar
    60   33   58 1
    61   34   35 ar
    62   34   59 1
    63   35   36 ar
    64   35   60 1
    65   36   61 1
@<TRIPOS>MOLECULE
CHEMBL245284__1
   62    66     0     0     0
SMALL
USER_CHARGES

@<TRIPOS>ATOM
      1 C1         -0.0784    1.0972   -0.3320 C.3       1 <0>        -0.1779
      2 C2          0.0109   -0.4074   -0.0693 C.3       1 <0>         0.0830
      3 N1          0.8254   -0.6472    1.1246 N.pl3     1 <0>        -0.3972
      4 C3          2.1982   -0.7187    1.1758 C.2       1 <0>         0.1115
      5 C4          2.5285   -0.9575    2.4997 C.2       1 <0>         0.1009
      6 N2          1.3861   -1.0237    3.2011 N.pl3     1 <0>        -0.4565
      7 C5          0.3643   -0.8357    2.3963 C.cat     1 <0>         0.3760
      8 C6         -1.0553   -0.8316    2.8016 C.ar      1 <0>        -0.0947
      9 C7         -1.8911    0.2184    2.4207 C.ar      1 <0>        -0.0761
     10 C8         -3.2167    0.2169    2.8018 C.ar      1 <0>        -0.1149
     11 C9         -3.7264   -0.8226    3.5623 C.ar      1 <0>        -0.0663
     12 C10        -2.9143   -1.8699    3.9483 C.ar      1 <0>        -0.0979
     13 C11        -1.5750   -1.8890    3.5691 C.ar      1 <0>         0.0222
     14 C12        -0.7009   -3.0143    3.9765 C.ar      1 <0>        -0.0605
     15 C13        -0.0067   -3.7453    3.0127 C.ar      1 <0>        -0.1680
     16 C14         0.8066   -4.7927    3.3949 C.ar      1 <0>        -0.0695
     17 C15         0.9359   -5.1204    4.7319 C.ar      1 <0>        -0.1995
     18 C16         0.2483   -4.3984    5.6976 C.ar      1 <0>         0.1534
     19 C17        -0.5655   -3.3415    5.3241 C.ar      1 <0>        -0.1433
     20 O1          0.3783   -4.7247    7.0105 O.3       1 <0>        -0.2726
     21 C18         1.2389   -5.8214    7.3243 C.3       1 <0>        -0.0103
     22 C19         1.2580   -6.0341    8.8161 C.2       1 <0>         0.5002
     23 O2          0.5960   -5.3133    9.5432 O.co2     1 <0>        -0.6679
     24 O3          1.9354   -6.9271    9.2960 O.co2     1 <0>        -0.6783
     25 C20         3.8978   -1.1126    3.0440 C.ar      1 <0>        -0.0641
     26 C21         4.8312   -1.9046    2.3758 C.ar      1 <0>        -0.0728
     27 C22         6.1050   -2.0448    2.8874 C.ar      1 <0>        -0.1129
     28 C23         6.4569   -1.4018    4.0606 C.ar      1 <0>        -0.0861
     29 C24         5.5352   -0.6152    4.7282 C.ar      1 <0>        -0.1105
     30 C25         4.2601   -0.4627    4.2235 C.ar      1 <0>        -0.0935
     31 C26         3.1340   -0.5709    0.0441 C.ar      1 <0>        -0.0542
     32 C27         2.8780   -1.2179   -1.1673 C.ar      1 <0>        -0.0973
     33 C28         3.7569   -1.0752   -2.2206 C.ar      1 <0>        -0.1127
     34 C29         4.8900   -0.2935   -2.0796 C.ar      1 <0>        -0.0888
     35 C30         5.1499    0.3503   -0.8825 C.ar      1 <0>        -0.1114
     36 C31         4.2768    0.2213    0.1774 C.ar      1 <0>        -0.0729
     37 H1          0.9062    1.4777   -0.6038 H         1 <0>         0.0762
     38 H2         -0.7774    1.2828   -1.1475 H         1 <0>         0.1001
     39 H3         -0.4277    1.6031    0.5681 H         1 <0>         0.0712
     40 H4         -0.9902   -0.8090    0.0872 H         1 <0>         0.1202
     41 H5          0.4697   -0.8994   -0.9270 H         1 <0>         0.1215
     42 H6         -1.5002    1.0323    1.8281 H         1 <0>         0.1358
     43 H7         -3.8612    1.0314    2.5057 H         1 <0>         0.1426
     44 H8         -4.7658   -0.8135    3.8554 H         1 <0>         0.1434
     45 H9         -3.3191   -2.6768    4.5412 H         1 <0>         0.1472
     46 H10        -0.1059   -3.4921    1.9675 H         1 <0>         0.1115
     47 H11         1.3432   -5.3582    2.6475 H         1 <0>         0.1266
     48 H12         1.5736   -5.9410    5.0258 H         1 <0>         0.1368
     49 H13        -1.0973   -2.7759    6.0748 H         1 <0>         0.1397
     50 H14         0.8723   -6.7230    6.8335 H         1 <0>         0.0640
     51 H15         2.2482   -5.6027    6.9756 H         1 <0>         0.0620
     52 H16         4.5574   -2.4073    1.4600 H         1 <0>         0.1290
     53 H17         6.8286   -2.6581    2.3710 H         1 <0>         0.1354
     54 H18         7.4552   -1.5145    4.4572 H         1 <0>         0.1347
     55 H19         5.8156   -0.1162    5.6441 H         1 <0>         0.1366
     56 H20         3.5427    0.1552    4.7431 H         1 <0>         0.1254
     57 H21         1.9942   -1.8286   -1.2786 H         1 <0>         0.1253
     58 H22         3.5605   -1.5751   -3.1576 H         1 <0>         0.1349
     59 H23         5.5749   -0.1856   -2.9076 H         1 <0>         0.1336
     60 H24         6.0362    0.9589   -0.7795 H         1 <0>         0.1357
     61 H25         4.4786    0.7280    1.1096 H         1 <0>         0.1310
     62 H26         1.3243   -1.1824    4.1560 H         1 <0>         0.4616
@<TRIPOS>BOND
     1    1    2 1
     2    1   37 1
     3    1   38 1
     4    1   39 1
     5    2    3 1
     6    2   40 1
     7    2   41 1
     8    3    7 1
     9    3    4 1
    10    4    5 2
    11    4   31 1
    12    5    6 1
    13    5   25 1
    14    6    7 2
    15    6   62 1
    16    7    8 1
    17    8   13 ar
    18    8    9 ar
    19    9   10 ar
    20    9   42 1
    21   10   11 ar
    22   10   43 1
    23   11   12 ar
    24   11   44 1
    25   12   13 ar
    26   12   45 1
    27   13   14 1
    28   14   19 ar
    29   14   15 ar
    30   15   16 ar
    31   15   46 1
    32   16   17 ar
    33   16   47 1
    34   17   18 ar
    35   17   48 1
    36   18   19 ar
    37   18   20 1
    38   19   49 1
    39   20   21 1
    40   21   22 1
    41   21   50 1
    42   21   51 1
    43   22   23 2
    44   22   24 1
    45   25   30 ar
    46   25   26 ar
    47   26   27 ar
    48   26   52 1
    49   27   28 ar
    50   27   53 1
    51   28   29 ar
    52   28   54 1
    53   29   30 ar
    54   29   55 1
    55   30   56 1
    56   31   36 ar
    57   31   32 ar
    58   32   33 ar
    59   32   57 1
    60   33   34 ar
    61   33   58 1
    62   34   35 ar
    63   34   59 1
    64   35   36 ar
    65   35   60 1
    66   36   61 1
@<TRIPOS>MOLECULE
CHEMBL378181
   44    46     0     0     0
SMALL
USER_CHARGES

@<TRIPOS>ATOM
      1 C1         -0.0187    1.3784   -0.0959 C.ar      1 <0>        -0.1130
      2 C2          1.1687    2.0867   -0.1091 C.ar      1 <0>        -0.1088
      3 C3          2.3753    1.4131   -0.1098 C.ar      1 <0>        -0.1107
      4 C4          2.3951    0.0296   -0.0968 C.ar      1 <0>        -0.0313
      5 C5          1.2068   -0.6785   -0.0831 C.ar      1 <0>        -0.0781
      6 C6          0.0004   -0.0036   -0.0829 C.ar      1 <0>        -0.0821
      7 C7          1.2275   -2.1853   -0.0694 C.3       1 <0>         0.0991
      8 O1         -0.1131   -2.6799   -0.0568 O.3       1 <0>        -0.3027
      9 C8         -0.2728   -4.0305   -0.0434 C.ar      1 <0>         0.0830
     10 C9          0.8370   -4.8587   -0.0368 C.ar      1 <0>        -0.1788
     11 C10         0.6846   -6.2370   -0.0228 C.ar      1 <0>        -0.1109
     12 C11        -0.5715   -6.7986   -0.0157 C.ar      1 <0>        -0.0867
     13 C12        -1.7065   -5.9759   -0.0222 C.ar      1 <0>        -0.1368
     14 C13        -1.5509   -4.5794   -0.0307 C.ar      1 <0>         0.1090
     15 O2         -2.6406   -3.7714   -0.0314 O.3       1 <0>        -0.3043
     16 C14        -3.1695   -3.3967   -1.3050 C.3       1 <0>         0.1152
     17 C15        -4.3684   -2.5050   -1.1084 C.ar      1 <0>        -0.0624
     18 C16        -4.7817   -2.1739    0.1685 C.ar      1 <0>        -0.0752
     19 C17        -5.8813   -1.3561    0.3490 C.ar      1 <0>        -0.1164
     20 C18        -6.5685   -0.8687   -0.7473 C.ar      1 <0>        -0.1140
     21 C19        -6.1562   -1.1990   -2.0243 C.ar      1 <0>        -0.1125
     22 C20        -5.0520   -2.0131   -2.2057 C.ar      1 <0>        -0.0327
     23 Cl1        -4.5296   -2.4231   -3.8097 Cl        1 <0>        -0.0722
     24 C21        -3.0505   -6.5701   -0.0153 C.2       1 <0>         0.3249
     25 O3         -4.0283   -5.8582    0.0880 O.2       1 <0>        -0.4269
     26 C22        -3.2135   -8.0510   -0.1353 C.2       1 <0>         0.4789
     27 O4         -4.3296   -8.5368   -0.2242 O.co2     1 <0>        -0.6447
     28 O5         -2.2306   -8.7743   -0.1444 O.co2     1 <0>        -0.6584
     29 Cl2         3.9105   -0.8173   -0.0983 Cl        1 <0>        -0.0684
     30 H1         -0.9615    1.9052   -0.0911 H         1 <0>         0.1309
     31 H2          1.1531    3.1665   -0.1192 H         1 <0>         0.1319
     32 H3          3.3027    1.9665   -0.1209 H         1 <0>         0.1346
     33 H4         -0.9274   -0.5563   -0.0726 H         1 <0>         0.1444
     34 H5          1.7408   -2.5497   -0.9593 H         1 <0>         0.0790
     35 H6          1.7516   -2.5334    0.8206 H         1 <0>         0.0798
     36 H7          1.8276   -4.4284   -0.0430 H         1 <0>         0.1277
     37 H8          1.5571   -6.8735   -0.0177 H         1 <0>         0.1296
     38 H9         -0.6830   -7.8728   -0.0055 H         1 <0>         0.1914
     39 H10        -2.4076   -2.8614   -1.8715 H         1 <0>         0.0664
     40 H11        -3.4677   -4.2911   -1.8520 H         1 <0>         0.0710
     41 H12        -4.2456   -2.5546    1.0253 H         1 <0>         0.1423
     42 H13        -6.2041   -1.0980    1.3468 H         1 <0>         0.1279
     43 H14        -7.4278   -0.2300   -0.6057 H         1 <0>         0.1289
     44 H15        -6.6932   -0.8185   -2.8806 H         1 <0>         0.1318
@<TRIPOS>BOND
     1    1    6 ar
     2    1    2 ar
     3    1   30 1
     4    2    3 ar
     5    2   31 1
     6    3    4 ar
     7    3   32 1
     8    4    5 ar
     9    4   29 1
    10    5    6 ar
    11    5    7 1
    12    6   33 1
    13    7    8 1
    14    7   34 1
    15    7   35 1
    16    8    9 1
    17    9   14 ar
    18    9   10 ar
    19   10   11 ar
    20   10   36 1
    21   11   12 ar
    22   11   37 1
    23   12   13 ar
    24   12   38 1
    25   13   14 ar
    26   13   24 1
    27   14   15 1
    28   15   16 1
    29   16   17 1
    30   16   39 1
    31   16   40 1
    32   17   22 ar
    33   17   18 ar
    34   18   19 ar
    35   18   41 1
    36   19   20 ar
    37   19   42 1
    38   20   21 ar
    39   20   43 1
    40   21   22 ar
    41   21   44 1
    42   22   23 1
    43   24   25 2
    44   24   26 1
    45   26   27 2
    46   26   28 1
@<TRIPOS>MOLECULE
CHEMBL397385
   61    65     0     0     0
SMALL
USER_CHARGES

@<TRIPOS>ATOM
      1 C1          0.0803    0.2997    1.5017 C.ar      1 <0>        -0.1173
      2 C2          1.0936    1.2400    1.4462 C.ar      1 <0>        -0.1196
      3 C3          2.3771    0.8564    1.1154 C.ar      1 <0>        -0.0881
      4 C4          2.6520   -0.4821    0.8370 C.ar      1 <0>        -0.0029
      5 C5          1.6264   -1.4254    0.8950 C.ar      1 <0>        -0.1003
      6 C6          0.3468   -1.0297    1.2266 C.ar      1 <0>        -0.1220
      7 C7          4.0280   -0.9004    0.4806 C.2       1 <0>         0.0746
      8 C8          4.6287   -2.1027    0.8162 C.2       1 <0>         0.0241
      9 N1          5.8967   -2.0653    0.2841 N.pl3     1 <0>        -0.4436
     10 C9          6.0324   -0.8633   -0.3499 C.2       1 <0>         0.2617
     11 N2          4.9134   -0.1847   -0.2300 N.2       1 <0>        -0.4293
     12 C10         7.2410   -0.4025   -1.0618 C.ar      1 <0>        -0.0124
     13 C11         8.4920   -0.4903   -0.4507 C.ar      1 <0>        -0.1057
     14 C12         9.6178   -0.0584   -1.1203 C.ar      1 <0>        -0.1192
     15 C13         9.5156    0.4642   -2.3991 C.ar      1 <0>        -0.1024
     16 C14         8.2862    0.5587   -3.0194 C.ar      1 <0>        -0.1032
     17 C15         7.1392    0.1223   -2.3624 C.ar      1 <0>         0.0050
     18 C16         5.8180    0.2158   -3.0272 C.ar      1 <0>        -0.0079
     19 C17         5.0227   -0.9216   -3.1661 C.ar      1 <0>        -0.1438
     20 C18         3.7929   -0.8316   -3.7857 C.ar      1 <0>        -0.0758
     21 C19         3.3455    0.3838   -4.2699 C.ar      1 <0>        -0.2082
     22 C20         4.1307    1.5206   -4.1362 C.ar      1 <0>         0.1447
     23 C21         5.3639    1.4413   -3.5103 C.ar      1 <0>        -0.1341
     24 O1          3.6869    2.7129   -4.6141 O.3       1 <0>        -0.2811
     25 C22         2.4034    2.7227   -5.2423 C.3       1 <0>        -0.0054
     26 C23         2.0816    4.1202   -5.7056 C.2       1 <0>         0.5016
     27 O2          2.8777    5.0239   -5.5156 O.co2     1 <0>        -0.6708
     28 O3          1.0253    4.3470   -6.2706 O.co2     1 <0>        -0.6886
     29 C24         6.9115   -3.1176    0.3801 C.3       1 <0>         0.0704
     30 C25         6.8590   -3.9926   -0.8739 C.3       1 <0>         0.0480
     31 F1          7.7465   -5.0647   -0.7320 F         1 <0>        -0.2026
     32 C26         4.0273   -3.2054    1.5911 C.ar      1 <0>        -0.0132
     33 C27         4.0128   -4.5020    1.0714 C.ar      1 <0>        -0.1125
     34 C28         3.4491   -5.5277    1.8011 C.ar      1 <0>        -0.1165
     35 C29         2.8987   -5.2747    3.0454 C.ar      1 <0>        -0.1135
     36 C30         2.9096   -3.9929    3.5665 C.ar      1 <0>        -0.1147
     37 C31         3.4751   -2.9586    2.8504 C.ar      1 <0>        -0.0858
     38 H1         -0.9219    0.6040    1.7651 H         1 <0>         0.1201
     39 H2          0.8795    2.2763    1.6620 H         1 <0>         0.1235
     40 H3          3.1672    1.5915    1.0717 H         1 <0>         0.1262
     41 H4          1.8332   -2.4634    0.6801 H         1 <0>         0.1187
     42 H5         -0.4482   -1.7592    1.2719 H         1 <0>         0.1202
     43 H6          8.5788   -0.8960    0.5465 H         1 <0>         0.1222
     44 H7         10.5849   -0.1276   -0.6446 H         1 <0>         0.1275
     45 H8         10.4036    0.8001   -2.9140 H         1 <0>         0.1290
     46 H9          8.2146    0.9673   -4.0166 H         1 <0>         0.1346
     47 H10         5.3694   -1.8725   -2.7893 H         1 <0>         0.1019
     48 H11         3.1782   -1.7131   -3.8929 H         1 <0>         0.1151
     49 H12         2.3822    0.4488   -4.7539 H         1 <0>         0.1255
     50 H13         5.9738    2.3259   -3.4013 H         1 <0>         0.1286
     51 H14         2.4130    2.0490   -6.0991 H         1 <0>         0.0579
     52 H15         1.6474    2.3932   -4.5294 H         1 <0>         0.0585
     53 H16         7.8988   -2.6635    0.4651 H         1 <0>         0.1083
     54 H17         6.7167   -3.7311    1.2597 H         1 <0>         0.1061
     55 H18         5.8468   -4.3742   -1.0085 H         1 <0>         0.0823
     56 H19         7.1421   -3.3992   -1.7432 H         1 <0>         0.0867
     57 H20         4.4416   -4.7007    0.1003 H         1 <0>         0.1179
     58 H21         3.4368   -6.5305    1.4004 H         1 <0>         0.1247
     59 H22         2.4583   -6.0816    3.6123 H         1 <0>         0.1234
     60 H23         2.4783   -3.8027    4.5382 H         1 <0>         0.1261
     61 H24         3.4869   -1.9594    3.2602 H         1 <0>         0.1257
@<TRIPOS>BOND
     1    1    6 ar
     2    1    2 ar
     3    1   38 1
     4    2    3 ar
     5    2   39 1
     6    3    4 ar
     7    3   40 1
     8    4    5 ar
     9    4    7 1
    10    5    6 ar
    11    5   41 1
    12    6   42 1
    13    7   11 1
    14    7    8 2
    15    8    9 1
    16    8   32 1
    17    9   10 1
    18    9   29 1
    19   10   11 2
    20   10   12 1
    21   12   17 ar
    22   12   13 ar
    23   13   14 ar
    24   13   43 1
    25   14   15 ar
    26   14   44 1
    27   15   16 ar
    28   15   45 1
    29   16   17 ar
    30   16   46 1
    31   17   18 1
    32   18   23 ar
    33   18   19 ar
    34   19   20 ar
    35   19   47 1
    36   20   21 ar
    37   20   48 1
    38   21   22 ar
    39   21   49 1
    40   22   23 ar
    41   22   24 1
    42   23   50 1
    43   24   25 1
    44   25   26 1
    45   25   51 1
    46   25   52 1
    47   26   27 2
    48   26   28 1
    49   29   30 1
    50   29   53 1
    51   29   54 1
    52   30   31 1
    53   30   55 1
    54   30   56 1
    55   32   37 ar
    56   32   33 ar
    57   33   34 ar
    58   33   57 1
    59   34   35 ar
    60   34   58 1
    61   35   36 ar
    62   35   59 1
    63   36   37 ar
    64   36   60 1
    65   37   61 1
@<TRIPOS>MOLECULE
CHEMBL397385__1
   62    66     0     0     0
SMALL
USER_CHARGES

@<TRIPOS>ATOM
      1 C1          0.1393    2.2289    1.1404 C.ar      1 <0>        -0.0847
      2 C2          1.3485    2.7812    0.7577 C.ar      1 <0>        -0.1097
      3 C3          2.4588    1.9770    0.6012 C.ar      1 <0>        -0.0882
      4 C4          2.3602    0.6049    0.8300 C.ar      1 <0>        -0.0678
      5 C5          1.1386    0.0540    1.2161 C.ar      1 <0>        -0.0737
      6 C6          0.0353    0.8684    1.3689 C.ar      1 <0>        -0.1151
      7 C7          3.5485   -0.2643    0.6632 C.2       1 <0>         0.1069
      8 C8          3.5912   -1.4659   -0.0247 C.2       1 <0>         0.1125
      9 N1          4.8836   -1.9260    0.0766 N.pl3     1 <0>        -0.4009
     10 C9          5.5814   -1.0092    0.8101 C.cat     1 <0>         0.3803
     11 N2          4.7776   -0.0254    1.1466 N.pl3     1 <0>        -0.4537
     12 C10         7.0117   -1.1049    1.1631 C.ar      1 <0>        -0.0977
     13 C11         7.5195   -2.2771    1.7237 C.ar      1 <0>        -0.0761
     14 C12         8.8567   -2.3610    2.0517 C.ar      1 <0>        -0.1115
     15 C13         9.7020   -1.2867    1.8284 C.ar      1 <0>        -0.0649
     16 C14         9.2173   -0.1190    1.2745 C.ar      1 <0>        -0.0959
     17 C15         7.8721   -0.0171    0.9311 C.ar      1 <0>         0.0213
     18 C16         7.3486    1.2323    0.3301 C.ar      1 <0>        -0.0602
     19 C17         6.6886    1.1948   -0.8980 C.ar      1 <0>        -0.1712
     20 C18         6.2022    2.3599   -1.4553 C.ar      1 <0>        -0.0701
     21 C19         6.3671    3.5660   -0.7997 C.ar      1 <0>        -0.2017
     22 C20         7.0232    3.6124    0.4227 C.ar      1 <0>         0.1545
     23 C21         7.5093    2.4473    0.9929 C.ar      1 <0>        -0.1426
     24 O1          7.1832    4.8003    1.0631 O.3       1 <0>        -0.2717
     25 C22         6.6513    5.9606    0.4205 C.3       1 <0>        -0.0103
     26 C23         6.9215    7.1745    1.2716 C.2       1 <0>         0.4997
     27 O2          7.5146    7.0570    2.3304 O.co2     1 <0>        -0.6674
     28 O3          6.5471    8.2742    0.9015 O.co2     1 <0>        -0.6779
     29 C24         5.4124   -3.1670   -0.4948 C.3       1 <0>         0.0576
     30 C25         6.0554   -2.8706   -1.8511 C.3       1 <0>         0.0511
     31 F1          6.4582   -4.0699   -2.4483 F         1 <0>        -0.1873
     32 C26         2.4716   -2.1226   -0.7272 C.ar      1 <0>        -0.0615
     33 C27         1.7500   -1.4279   -1.7010 C.ar      1 <0>        -0.0699
     34 C28         0.7049   -2.0479   -2.3534 C.ar      1 <0>        -0.1112
     35 C29         0.3706   -3.3549   -2.0454 C.ar      1 <0>        -0.0863
     36 C30         1.0809   -4.0492   -1.0820 C.ar      1 <0>        -0.1129
     37 C31         2.1321   -3.4437   -0.4256 C.ar      1 <0>        -0.0960
     38 H1         -0.7260    2.8630    1.2657 H         1 <0>         0.1349
     39 H2          1.4237    3.8440    0.5808 H         1 <0>         0.1384
     40 H3          3.4021    2.4092    0.3017 H         1 <0>         0.1281
     41 H4          1.0561   -1.0080    1.3943 H         1 <0>         0.1282
     42 H5         -0.9113    0.4430    1.6679 H         1 <0>         0.1349
     43 H6          6.8659   -3.1183    1.9012 H         1 <0>         0.1344
     44 H7          9.2469   -3.2698    2.4855 H         1 <0>         0.1440
     45 H8         10.7472   -1.3631    2.0896 H         1 <0>         0.1445
     46 H9          9.8827    0.7143    1.1035 H         1 <0>         0.1482
     47 H10         6.5585    0.2544   -1.4129 H         1 <0>         0.1107
     48 H11         5.6917    2.3295   -2.4065 H         1 <0>         0.1277
     49 H12         5.9846    4.4748   -1.2401 H         1 <0>         0.1378
     50 H13         8.0157    2.4813    1.9462 H         1 <0>         0.1405
     51 H14         7.1255    6.0864   -0.5528 H         1 <0>         0.0644
     52 H15         5.5759    5.8418    0.2881 H         1 <0>         0.0622
     53 H16         6.1603   -3.5870    0.1778 H         1 <0>         0.1297
     54 H17         4.5999   -3.8816   -0.6263 H         1 <0>         0.1339
     55 H18         5.3320   -2.3694   -2.4943 H         1 <0>         0.0916
     56 H19         6.9229   -2.2262   -1.7089 H         1 <0>         0.0925
     57 H20         2.0097   -0.4077   -1.9421 H         1 <0>         0.1315
     58 H21         0.1460   -1.5119   -3.1062 H         1 <0>         0.1367
     59 H22        -0.4489   -3.8353   -2.5593 H         1 <0>         0.1344
     60 H23         0.8145   -5.0690   -0.8466 H         1 <0>         0.1356
     61 H24         2.6885   -3.9882    0.3230 H         1 <0>         0.1259
     62 H25         5.0328    0.7527    1.6664 H         1 <0>         0.4633
@<TRIPOS>BOND
     1    1    6 ar
     2    1    2 ar
     3    1   38 1
     4    2    3 ar
     5    2   39 1
     6    3    4 ar
     7    3   40 1
     8    4    5 ar
     9    4    7 1
    10    5    6 ar
    11    5   41 1
    12    6   42 1
    13    7   11 1
    14    7    8 2
    15    8    9 1
    16    8   32 1
    17    9   10 1
    18    9   29 1
    19   10   11 2
    20   10   12 1
    21   11   62 1
    22   12   17 ar
    23   12   13 ar
    24   13   14 ar
    25   13   43 1
    26   14   15 ar
    27   14   44 1
    28   15   16 ar
    29   15   45 1
    30   16   17 ar
    31   16   46 1
    32   17   18 1
    33   18   23 ar
    34   18   19 ar
    35   19   20 ar
    36   19   47 1
    37   20   21 ar
    38   20   48 1
    39   21   22 ar
    40   21   49 1
    41   22   23 ar
    42   22   24 1
    43   23   50 1
    44   24   25 1
    45   25   26 1
    46   25   51 1
    47   25   52 1
    48   26   27 2
    49   26   28 1
    50   29   30 1
    51   29   53 1
    52   29   54 1
    53   30   31 1
    54   30   55 1
    55   30   56 1
    56   32   37 ar
    57   32   33 ar
    58   33   34 ar
    59   33   57 1
    60   34   35 ar
    61   34   58 1
    62   35   36 ar
    63   35   59 1
    64   36   37 ar
    65   36   60 1
    66   37   61 1
@<TRIPOS>MOLECULE
CHEMBL245282
   59    63     0     0     0
SMALL
USER_CHARGES

@<TRIPOS>ATOM
      1 C1          0.2764    1.0176   -0.1425 C.3       1 <0>         0.0649
      2 N1          0.4230   -0.4314    0.0160 N.pl3     1 <0>        -0.4451
      3 C2          0.5227   -1.3577   -0.9960 C.2       1 <0>         0.0198
      4 C3          0.6460   -2.5943   -0.3840 C.2       1 <0>         0.0711
      5 N2          0.6193   -2.3984    0.9435 N.2       1 <0>        -0.4307
      6 C4          0.4921   -1.1151    1.1963 C.2       1 <0>         0.2608
      7 C5          0.4305   -0.5095    2.5413 C.ar      1 <0>        -0.0112
      8 C6          1.2169    0.6014    2.8477 C.ar      1 <0>        -0.1030
      9 C7          1.1551    1.1635    4.1058 C.ar      1 <0>        -0.1244
     10 C8          0.3154    0.6319    5.0707 C.ar      1 <0>        -0.1049
     11 C9         -0.4695   -0.4672    4.7856 C.ar      1 <0>        -0.1068
     12 C10        -0.4255   -1.0451    3.5200 C.ar      1 <0>         0.0084
     13 C11        -1.2714   -2.2211    3.2075 C.ar      1 <0>         0.0026
     14 C12        -2.1504   -2.1827    2.1251 C.ar      1 <0>        -0.1656
     15 C13        -2.9375   -3.2789    1.8356 C.ar      1 <0>        -0.0670
     16 C14        -2.8587   -4.4172    2.6157 C.ar      1 <0>        -0.1997
     17 C15        -1.9860   -4.4649    3.6963 C.ar      1 <0>         0.2333
     18 C16        -1.1868   -3.3701    3.9905 C.ar      1 <0>        -0.1806
     19 N3         -1.9094   -5.6172    4.4822 N.pl3     1 <0>        -0.7172
     20 C17        -2.7491   -6.7757    4.1675 C.3       1 <0>         0.0556
     21 C18        -2.4769   -7.8776    5.1588 C.2       1 <0>         0.4907
     22 O1         -1.6574   -7.7107    6.0460 O.co2     1 <0>        -0.6904
     23 O2         -3.0762   -8.9359    5.0737 O.co2     1 <0>        -0.6926
     24 C19         0.7822   -3.8996   -1.0717 C.ar      1 <0>        -0.0001
     25 C20         0.1203   -4.1278   -2.2778 C.ar      1 <0>        -0.1015
     26 C21         0.2513   -5.3453   -2.9138 C.ar      1 <0>        -0.1222
     27 C22         1.0373   -6.3385   -2.3574 C.ar      1 <0>        -0.1190
     28 C23         1.6964   -6.1180   -1.1612 C.ar      1 <0>        -0.1198
     29 C24         1.5774   -4.9028   -0.5185 C.ar      1 <0>        -0.0888
     30 C25         0.5024   -1.0876   -2.4469 C.ar      1 <0>        -0.0071
     31 C26        -0.4394   -0.2064   -2.9835 C.ar      1 <0>        -0.1167
     32 C27        -0.4525    0.0413   -4.3403 C.ar      1 <0>        -0.1170
     33 C28         0.4643   -0.5807   -5.1694 C.ar      1 <0>        -0.1177
     34 C29         1.4001   -1.4548   -4.6448 C.ar      1 <0>        -0.1145
     35 C30         1.4286   -1.7075   -3.2892 C.ar      1 <0>        -0.0883
     36 H1          1.2567    1.4905   -0.0841 H         1 <0>         0.0776
     37 H2         -0.1739    1.2334   -1.1114 H         1 <0>         0.0901
     38 H3         -0.3626    1.4070    0.6500 H         1 <0>         0.0895
     39 H4          1.8741    1.0208    2.1002 H         1 <0>         0.1202
     40 H5          1.7654    2.0232    4.3400 H         1 <0>         0.1251
     41 H6          0.2750    1.0800    6.0525 H         1 <0>         0.1265
     42 H7         -1.1214   -0.8761    5.5434 H         1 <0>         0.1323
     43 H8         -2.2153   -1.2949    1.5136 H         1 <0>         0.0969
     44 H9         -3.6174   -3.2470    0.9971 H         1 <0>         0.1092
     45 H10        -3.4774   -5.2719    2.3852 H         1 <0>         0.1163
     46 H11        -0.5044   -3.4067    4.8268 H         1 <0>         0.1157
     47 H12        -1.3002   -5.6504    5.2363 H         1 <0>         0.4074
     48 H13        -3.7993   -6.4888    4.2224 H         1 <0>         0.0564
     49 H14        -2.5207   -7.1275    3.1614 H         1 <0>         0.0569
     50 H15        -0.4939   -3.3533   -2.7129 H         1 <0>         0.1191
     51 H16        -0.2611   -5.5233   -3.8477 H         1 <0>         0.1199
     52 H17         1.1366   -7.2899   -2.8588 H         1 <0>         0.1194
     53 H18         2.3087   -6.8971   -0.7317 H         1 <0>         0.1225
     54 H19         2.0956   -4.7304    0.4132 H         1 <0>         0.1254
     55 H20        -1.1557    0.2795   -2.3376 H         1 <0>         0.1203
     56 H21        -1.1803    0.7220   -4.7566 H         1 <0>         0.1235
     57 H22         0.4492   -0.3833   -6.2311 H         1 <0>         0.1223
     58 H23         2.1126   -1.9367   -5.2977 H         1 <0>         0.1255
     59 H24         2.1626   -2.3861   -2.8804 H         1 <0>         0.1265
@<TRIPOS>BOND
     1    1    2 1
     2    1   36 1
     3    1   37 1
     4    1   38 1
     5    2    6 1
     6    2    3 1
     7    3    4 2
     8    3   30 1
     9    4    5 1
    10    4   24 1
    11    5    6 2
    12    6    7 1
    13    7   12 ar
    14    7    8 ar
    15    8    9 ar
    16    8   39 1
    17    9   10 ar
    18    9   40 1
    19   10   11 ar
    20   10   41 1
    21   11   12 ar
    22   11   42 1
    23   12   13 1
    24   13   18 ar
    25   13   14 ar
    26   14   15 ar
    27   14   43 1
    28   15   16 ar
    29   15   44 1
    30   16   17 ar
    31   16   45 1
    32   17   18 ar
    33   17   19 1
    34   18   46 1
    35   19   20 1
    36   19   47 1
    37   20   21 1
    38   20   48 1
    39   20   49 1
    40   21   22 2
    41   21   23 1
    42   24   29 ar
    43   24   25 ar
    44   25   26 ar
    45   25   50 1
    46   26   27 ar
    47   26   51 1
    48   27   28 ar
    49   27   52 1
    50   28   29 ar
    51   28   53 1
    52   29   54 1
    53   30   35 ar
    54   30   31 ar
    55   31   32 ar
    56   31   55 1
    57   32   33 ar
    58   32   56 1
    59   33   34 ar
    60   33   57 1
    61   34   35 ar
    62   34   58 1
    63   35   59 1
@<TRIPOS>MOLECULE
CHEMBL245282__1
   60    64     0     0     0
SMALL
USER_CHARGES

@<TRIPOS>ATOM
      1 C1          0.2607    1.0187   -0.1419 C.3       1 <0>         0.0508
      2 N1          0.4145   -0.4296    0.0157 N.pl3     1 <0>        -0.4008
      3 C2          0.5157   -1.3551   -0.9970 C.2       1 <0>         0.1085
      4 C3          0.6465   -2.5913   -0.3858 C.2       1 <0>         0.1024
      5 N2          0.6226   -2.3961    0.9418 N.pl3     1 <0>        -0.4541
      6 C4          0.4901   -1.1135    1.1955 C.cat     1 <0>         0.3789
      7 C5          0.4296   -0.5087    2.5409 C.ar      1 <0>        -0.0961
      8 C6          1.2160    0.6021    2.8473 C.ar      1 <0>        -0.0726
      9 C7          1.1551    1.1635    4.1058 C.ar      1 <0>        -0.1174
     10 C8          0.3164    0.6311    5.0711 C.ar      1 <0>        -0.0672
     11 C9         -0.4686   -0.4680    4.7860 C.ar      1 <0>        -0.1002
     12 C10        -0.4255   -1.0451    3.5200 C.ar      1 <0>         0.0255
     13 C11        -1.2714   -2.2211    3.2075 C.ar      1 <0>        -0.0496
     14 C12        -2.1504   -2.1827    2.1251 C.ar      1 <0>        -0.1954
     15 C13        -2.9375   -3.2789    1.8356 C.ar      1 <0>        -0.0596
     16 C14        -2.8587   -4.4172    2.6157 C.ar      1 <0>        -0.1908
     17 C15        -1.9860   -4.4649    3.6963 C.ar      1 <0>         0.2399
     18 C16        -1.1868   -3.3701    3.9905 C.ar      1 <0>        -0.1928
     19 N3         -1.9094   -5.6172    4.4822 N.pl3     1 <0>        -0.7023
     20 C17        -2.7491   -6.7757    4.1675 C.3       1 <0>         0.0466
     21 C18        -2.4769   -7.8776    5.1588 C.2       1 <0>         0.4890
     22 O1         -1.6574   -7.7107    6.0460 O.co2     1 <0>        -0.6883
     23 O2         -3.0762   -8.9359    5.0737 O.co2     1 <0>        -0.6818
     24 C19         0.7868   -3.8957   -1.0745 C.ar      1 <0>        -0.0628
     25 C20        -0.0319   -4.2057   -2.1601 C.ar      1 <0>        -0.0723
     26 C21         0.1038   -5.4219   -2.7977 C.ar      1 <0>        -0.1129
     27 C22         1.0495   -6.3328   -2.3620 C.ar      1 <0>        -0.0866
     28 C23         1.8645   -6.0309   -1.2857 C.ar      1 <0>        -0.1108
     29 C24         1.7418   -4.8158   -0.6433 C.ar      1 <0>        -0.0935
     30 C25         0.4900   -1.0845   -2.4477 C.ar      1 <0>        -0.0548
     31 C26        -0.4574   -0.2075   -2.9813 C.ar      1 <0>        -0.0986
     32 C27        -0.4756    0.0407   -4.3379 C.ar      1 <0>        -0.1129
     33 C28         0.4418   -0.5767   -5.1699 C.ar      1 <0>        -0.0890
     34 C29         1.3831   -1.4466   -4.6483 C.ar      1 <0>        -0.1115
     35 C30         1.4167   -1.6997   -3.2929 C.ar      1 <0>        -0.0727
     36 H1          1.2389    1.4963   -0.0847 H         1 <0>         0.1081
     37 H2         -0.1921    1.2329   -1.1099 H         1 <0>         0.1174
     38 H3         -0.3789    1.4047    0.6518 H         1 <0>         0.1145
     39 H4          1.8724    1.0221    2.0996 H         1 <0>         0.1329
     40 H5          1.7654    2.0232    4.3400 H         1 <0>         0.1415
     41 H6          0.2766    1.0786    6.0532 H         1 <0>         0.1418
     42 H7         -1.1197   -0.8775    5.5441 H         1 <0>         0.1456
     43 H8         -2.2153   -1.2949    1.5136 H         1 <0>         0.1049
     44 H9         -3.6174   -3.2470    0.9971 H         1 <0>         0.1209
     45 H10        -3.4774   -5.2719    2.3852 H         1 <0>         0.1279
     46 H11        -0.5044   -3.4067    4.8268 H         1 <0>         0.1271
     47 H12        -1.3002   -5.6504    5.2363 H         1 <0>         0.4125
     48 H13        -3.7993   -6.4888    4.2224 H         1 <0>         0.0640
     49 H14        -2.5207   -7.1275    3.1614 H         1 <0>         0.0625
     50 H15        -0.7708   -3.4956   -2.5008 H         1 <0>         0.1292
     51 H16        -0.5299   -5.6633   -3.6383 H         1 <0>         0.1353
     52 H17         1.1517   -7.2836   -2.8640 H         1 <0>         0.1342
     53 H18         2.6010   -6.7460   -0.9501 H         1 <0>         0.1360
     54 H19         2.3814   -4.5796    0.1943 H         1 <0>         0.1249
     55 H20        -1.1742    0.2748   -2.3332 H         1 <0>         0.1269
     56 H21        -1.2077    0.7182   -4.7519 H         1 <0>         0.1351
     57 H22         0.4228   -0.3790   -6.2315 H         1 <0>         0.1336
     58 H23         2.0961   -1.9250   -5.3035 H         1 <0>         0.1358
     59 H24         2.1550   -2.3751   -2.8864 H         1 <0>         0.1311
     60 H25         0.6953   -3.0943    1.6113 H         1 <0>         0.4621
@<TRIPOS>BOND
     1    1    2 1
     2    1   36 1
     3    1   37 1
     4    1   38 1
     5    2    6 1
     6    2    3 1
     7    3    4 2
     8    3   30 1
     9    4    5 1
    10    4   24 1
    11    5    6 2
    12    5   60 1
    13    6    7 1
    14    7   12 ar
    15    7    8 ar
    16    8    9 ar
    17    8   39 1
    18    9   10 ar
    19    9   40 1
    20   10   11 ar
    21   10   41 1
    22   11   12 ar
    23   11   42 1
    24   12   13 1
    25   13   18 ar
    26   13   14 ar
    27   14   15 ar
    28   14   43 1
    29   15   16 ar
    30   15   44 1
    31   16   17 ar
    32   16   45 1
    33   17   18 ar
    34   17   19 1
    35   18   46 1
    36   19   20 1
    37   19   47 1
    38   20   21 1
    39   20   48 1
    40   20   49 1
    41   21   22 2
    42   21   23 1
    43   24   29 ar
    44   24   25 ar
    45   25   26 ar
    46   25   50 1
    47   26   27 ar
    48   26   51 1
    49   27   28 ar
    50   27   52 1
    51   28   29 ar
    52   28   53 1
    53   29   54 1
    54   30   35 ar
    55   30   31 ar
    56   31   32 ar
    57   31   55 1
    58   32   33 ar
    59   32   56 1
    60   33   34 ar
    61   33   57 1
    62   34   35 ar
    63   34   58 1
    64   35   59 1
@<TRIPOS>MOLECULE
CHEMBL246902
   55    59     0     0     0
SMALL
USER_CHARGES

@<TRIPOS>ATOM
      1 C1         -0.2446    0.9003   -0.3470 C.ar      1 <0>        -0.1224
      2 C2          0.8657    1.7256   -0.3365 C.ar      1 <0>        -0.1194
      3 C3          2.1319    1.1823   -0.2611 C.ar      1 <0>        -0.1071
      4 C4          2.2910   -0.2013   -0.1953 C.ar      1 <0>        -0.0073
      5 C5          1.1684   -1.0280   -0.2062 C.ar      1 <0>        -0.1009
      6 C6         -0.0929   -0.4732   -0.2819 C.ar      1 <0>        -0.1181
      7 C7          3.6486   -0.7911   -0.1146 C.2       1 <0>        -0.1272
      8 C8          4.7177   -0.5814   -1.0161 C.2       1 <0>        -0.1787
      9 C9          5.7694   -1.3133   -0.5601 C.2       1 <0>         0.0466
     10 O1          5.4002   -1.9543    0.5653 O.3       1 <0>        -0.1395
     11 C10         4.1219   -1.6512    0.8615 C.2       1 <0>         0.0503
     12 C11         3.3590   -2.1508    2.0200 C.ar      1 <0>        -0.0196
     13 C12         3.3847   -3.5101    2.3445 C.ar      1 <0>        -0.0935
     14 C13         2.6686   -3.9701    3.4296 C.ar      1 <0>        -0.1189
     15 C14         1.9258   -3.0895    4.1964 C.ar      1 <0>        -0.1077
     16 C15         1.8951   -1.7424    3.8810 C.ar      1 <0>        -0.1196
     17 C16         2.6111   -1.2667    2.8026 C.ar      1 <0>        -0.0818
     18 C17         7.0983   -1.3926   -1.1954 C.ar      1 <0>        -0.0182
     19 C18         7.2095   -1.6629   -2.5601 C.ar      1 <0>        -0.0912
     20 C19         8.4545   -1.7355   -3.1488 C.ar      1 <0>        -0.1220
     21 C20         9.5996   -1.5420   -2.3935 C.ar      1 <0>        -0.1050
     22 C21         9.5093   -1.2737   -1.0425 C.ar      1 <0>        -0.1052
     23 C22         8.2617   -1.1906   -0.4308 C.ar      1 <0>        -0.0099
     24 C23         8.1599   -0.8972    1.0182 C.ar      1 <0>        -0.0201
     25 C24         7.2992    0.1028    1.4707 C.ar      1 <0>        -0.1480
     26 C25         7.2061    0.3736    2.8206 C.ar      1 <0>        -0.0766
     27 C26         7.9644   -0.3435    3.7276 C.ar      1 <0>        -0.2089
     28 C27         8.8235   -1.3404    3.2859 C.ar      1 <0>         0.1423
     29 C28         8.9194   -1.6233    1.9333 C.ar      1 <0>        -0.1411
     30 O2          9.5667   -2.0425    4.1812 O.3       1 <0>        -0.2809
     31 C29         9.4136   -1.7016    5.5605 C.3       1 <0>        -0.0062
     32 C30        10.3094   -2.5783    6.3971 C.2       1 <0>         0.5015
     33 O3         11.0137   -3.4173    5.8618 O.co2     1 <0>        -0.6707
     34 O4         10.3299   -2.4485    7.6092 O.co2     1 <0>        -0.6876
     35 H1         -1.2338    1.3302   -0.4016 H         1 <0>         0.1198
     36 H2          0.7412    2.7971   -0.3879 H         1 <0>         0.1219
     37 H3          2.9979    1.8275   -0.2534 H         1 <0>         0.1226
     38 H4          1.2856   -2.1004   -0.1558 H         1 <0>         0.1195
     39 H5         -0.9633   -1.1125   -0.2900 H         1 <0>         0.1213
     40 H6          4.7019    0.0407   -1.8988 H         1 <0>         0.1521
     41 H7          3.9637   -4.1984    1.7467 H         1 <0>         0.1257
     42 H8          2.6872   -5.0202    3.6813 H         1 <0>         0.1273
     43 H9          1.3669   -3.4555    5.0450 H         1 <0>         0.1247
     44 H10         1.3129   -1.0611    4.4838 H         1 <0>         0.1265
     45 H11         2.5905   -0.2143    2.5607 H         1 <0>         0.1244
     46 H12         6.3209   -1.8156   -3.1548 H         1 <0>         0.1286
     47 H13         8.5373   -1.9448   -4.2050 H         1 <0>         0.1278
     48 H14        10.5695   -1.6018   -2.8649 H         1 <0>         0.1280
     49 H15        10.4069   -1.1241   -0.4607 H         1 <0>         0.1329
     50 H16         6.7061    0.6652    0.7648 H         1 <0>         0.1151
     51 H17         6.5393    1.1481    3.1697 H         1 <0>         0.1191
     52 H18         7.8883   -0.1272    4.7829 H         1 <0>         0.1275
     53 H19         9.5841   -2.4016    1.5887 H         1 <0>         0.1302
     54 H20         9.6863   -0.6567    5.7089 H         1 <0>         0.0590
     55 H21         8.3761   -1.8523    5.8590 H         1 <0>         0.0587
@<TRIPOS>BOND
     1    1    6 ar
     2    1    2 ar
     3    1   35 1
     4    2    3 ar
     5    2   36 1
     6    3    4 ar
     7    3   37 1
     8    4    5 ar
     9    4    7 1
    10    5    6 ar
    11    5   38 1
    12    6   39 1
    13    7   11 2
    14    7    8 1
    15    8    9 2
    16    8   40 1
    17    9   10 1
    18    9   18 1
    19   10   11 1
    20   11   12 1
    21   12   17 ar
    22   12   13 ar
    23   13   14 ar
    24   13   41 1
    25   14   15 ar
    26   14   42 1
    27   15   16 ar
    28   15   43 1
    29   16   17 ar
    30   16   44 1
    31   17   45 1
    32   18   23 ar
    33   18   19 ar
    34   19   20 ar
    35   19   46 1
    36   20   21 ar
    37   20   47 1
    38   21   22 ar
    39   21   48 1
    40   22   23 ar
    41   22   49 1
    42   23   24 1
    43   24   29 ar
    44   24   25 ar
    45   25   26 ar
    46   25   50 1
    47   26   27 ar
    48   26   51 1
    49   27   28 ar
    50   27   52 1
    51   28   29 ar
    52   28   30 1
    53   29   53 1
    54   30   31 1
    55   31   32 1
    56   31   54 1
    57   31   55 1
    58   32   33 2
    59   32   34 1
@<TRIPOS>MOLECULE
CHEMBL185595
   33    35     0     0     0
SMALL
USER_CHARGES

@<TRIPOS>ATOM
      1 C1         -0.0166    1.3739    0.0096 C.ar      1 <0>        -0.1579
      2 C2          1.1715    2.0887    0.0021 C.ar      1 <0>        -0.0863
      3 C3          2.3835    1.4330   -0.0135 C.ar      1 <0>        -0.1390
      4 C4          2.4230    0.0419   -0.0218 C.ar      1 <0>         0.1490
      5 C5          1.2201   -0.6797   -0.0137 C.ar      1 <0>        -0.1091
      6 C6          0.0021   -0.0041    0.0020 C.ar      1 <0>        -0.0634
      7 C7          1.5887   -2.1073   -0.0265 C.ar      1 <0>        -0.1092
      8 C8          0.8500   -3.2882   -0.0266 C.ar      1 <0>        -0.0634
      9 C9          1.5007   -4.5029   -0.0413 C.ar      1 <0>        -0.1579
     10 C10         2.8862   -4.5530   -0.0561 C.ar      1 <0>        -0.0863
     11 C11         3.6293   -3.3925   -0.0558 C.ar      1 <0>        -0.1390
     12 C12         2.9905   -2.1561   -0.0414 C.ar      1 <0>         0.1490
     13 N1          3.4724   -0.8594   -0.0383 N.pl3     1 <0>        -0.4971
     14 C13         4.8908   -0.4931   -0.0508 C.3       1 <0>         0.1087
     15 C14         5.3995   -0.3745    1.3873 C.3       1 <0>        -0.1078
     16 C15         6.8809    0.0081    1.3743 C.3       1 <0>        -0.1810
     17 C16         7.3820    0.1248    2.7907 C.2       1 <0>         0.4899
     18 O1          6.6245   -0.0791    3.7241 O.co2     1 <0>        -0.6960
     19 O2          8.5449    0.4232    3.0033 O.co2     1 <0>        -0.7052
     20 H1         -0.9602    1.8990    0.0259 H         1 <0>         0.1227
     21 H2          1.1469    3.1684    0.0081 H         1 <0>         0.1260
     22 H3          3.3032    1.9991   -0.0196 H         1 <0>         0.1236
     23 H4         -0.9248   -0.5584    0.0083 H         1 <0>         0.1212
     24 H5         -0.2293   -3.2520   -0.0147 H         1 <0>         0.1212
     25 H6          0.9292   -5.4194   -0.0411 H         1 <0>         0.1227
     26 H7          3.3873   -5.5097   -0.0676 H         1 <0>         0.1260
     27 H8          4.7081   -3.4425   -0.0666 H         1 <0>         0.1236
     28 H9          5.4597   -1.2607   -0.5753 H         1 <0>         0.0830
     29 H10         5.0147    0.4627   -0.5600 H         1 <0>         0.0830
     30 H11         4.8306    0.3931    1.9118 H         1 <0>         0.0660
     31 H12         5.2756   -1.3303    1.8965 H         1 <0>         0.0660
     32 H13         7.4498   -0.7596    0.8497 H         1 <0>         0.0586
     33 H14         7.0048    0.9638    0.8651 H         1 <0>         0.0586
@<TRIPOS>BOND
     1    1    6 ar
     2    1    2 ar
     3    1   20 1
     4    2    3 ar
     5    2   21 1
     6    3    4 ar
     7    3   22 1
     8    4   13 1
     9    4    5 ar
    10    5    6 ar
    11    5    7 1
    12    6   23 1
    13    7   12 ar
    14    7    8 ar
    15    8    9 ar
    16    8   24 1
    17    9   10 ar
    18    9   25 1
    19   10   11 ar
    20   10   26 1
    21   11   12 ar
    22   11   27 1
    23   12   13 1
    24   13   14 1
    25   14   15 1
    26   14   28 1
    27   14   29 1
    28   15   16 1
    29   15   30 1
    30   15   31 1
    31   16   17 1
    32   16   32 1
    33   16   33 1
    34   17   18 2
    35   17   19 1
@<TRIPOS>MOLECULE
CHEMBL474942
   44    47     0     0     0
SMALL
USER_CHARGES

@<TRIPOS>ATOM
      1 C1         -1.8866    0.8777   -0.3214 C.ar      1 <0>        -0.0795
      2 C2         -1.4466    2.0654    0.2331 C.ar      1 <0>        -0.1256
      3 C3         -0.1485    2.1731    0.6953 C.ar      1 <0>        -0.1090
      4 C4          0.7098    1.0931    0.6037 C.ar      1 <0>        -0.1766
      5 C5          0.2696   -0.0945    0.0502 C.ar      1 <0>        -0.0874
      6 C6         -1.0284   -0.2018   -0.4134 C.ar      1 <0>        -0.0947
      7 C7          1.2055   -1.2714   -0.0505 C.3       1 <0>         0.1131
      8 N1          1.3674   -1.8811    1.2716 N.pl3     1 <0>        -0.4550
      9 C8          2.5231   -1.8667    2.0093 C.2       1 <0>         0.0929
     10 C9          2.3271   -2.5170    3.1761 C.2       1 <0>        -0.1907
     11 C10         0.9527   -2.9753    3.1801 C.ar      1 <0>        -0.1036
     12 C11         0.3933   -2.5397    1.9515 C.ar      1 <0>         0.1262
     13 C12        -0.9504   -2.8220    1.6380 C.ar      1 <0>        -0.1267
     14 C13        -1.6840   -3.5396    2.5931 C.ar      1 <0>        -0.0947
     15 C14        -1.1258   -3.9532    3.7848 C.ar      1 <0>        -0.1543
     16 C15         0.1965   -3.6931    4.1103 C.ar      1 <0>        -0.0909
     17 C16        -1.5550   -2.3847    0.3700 C.2       1 <0>         0.5361
     18 O1         -2.5630   -1.6913    0.3799 O.co2     1 <0>        -0.6562
     19 O2         -1.0498   -2.7144   -0.6944 O.co2     1 <0>        -0.6707
     20 C17         3.3816   -2.7009    4.2374 C.3       1 <0>        -0.0338
     21 C18         4.7540   -2.4163    3.6158 C.3       1 <0>        -0.1165
     22 C19         4.7036   -1.0811    2.8676 C.3       1 <0>        -0.1075
     23 C20         3.8352   -1.2312    1.6137 C.3       1 <0>        -0.1015
     24 C21         2.1254    1.2108    1.1068 C.3       1 <0>         0.4991
     25 F1          2.3914    2.5424    1.4436 F         1 <0>        -0.1817
     26 F2          2.2874    0.4026    2.2371 F         1 <0>        -0.1536
     27 F3          3.0117    0.7968    0.1066 F         1 <0>        -0.1692
     28 H1         -2.9023    0.7921   -0.6785 H         1 <0>         0.1258
     29 H2         -2.1171    2.9090    0.3046 H         1 <0>         0.1213
     30 H3          0.1954    3.1010    1.1278 H         1 <0>         0.1241
     31 H4         -1.3722   -1.1295   -0.8466 H         1 <0>         0.2268
     32 H5          0.7921   -2.0062   -0.7414 H         1 <0>         0.1357
     33 H6          2.1753   -0.9341   -0.4163 H         1 <0>         0.0932
     34 H7         -2.7181   -3.7756    2.3898 H         1 <0>         0.1132
     35 H8         -1.7374   -4.5031    4.4848 H         1 <0>         0.1079
     36 H9          0.6209   -4.0218    5.0475 H         1 <0>         0.1177
     37 H10         3.2002   -2.0067    5.0579 H         1 <0>         0.0616
     38 H11         3.3530   -3.7256    4.6082 H         1 <0>         0.0635
     39 H12         5.5062   -2.3640    4.4030 H         1 <0>         0.0608
     40 H13         5.0105   -3.2143    2.9191 H         1 <0>         0.0619
     41 H14         4.2760   -0.3168    3.5165 H         1 <0>         0.0652
     42 H15         5.7128   -0.7886    2.5777 H         1 <0>         0.0633
     43 H16         4.3453   -1.8658    0.8891 H         1 <0>         0.0671
     44 H17         3.6495   -0.2497    1.1776 H         1 <0>         0.1027
@<TRIPOS>BOND
     1    1    6 ar
     2    1    2 ar
     3    1   28 1
     4    2    3 ar
     5    2   29 1
     6    3    4 ar
     7    3   30 1
     8    4    5 ar
     9    4   24 1
    10    5    6 ar
    11    5    7 1
    12    6   31 1
    13    7    8 1
    14    7   32 1
    15    7   33 1
    16    8   12 1
    17    8    9 1
    18    9   23 1
    19    9   10 2
    20   10   11 1
    21   10   20 1
    22   11   16 ar
    23   11   12 ar
    24   12   13 ar
    25   13   14 ar
    26   13   17 1
    27   14   15 ar
    28   14   34 1
    29   15   16 ar
    30   15   35 1
    31   16   36 1
    32   17   18 2
    33   17   19 1
    34   20   21 1
    35   20   37 1
    36   20   38 1
    37   21   22 1
    38   21   39 1
    39   21   40 1
    40   22   23 1
    41   22   41 1
    42   22   42 1
    43   23   43 1
    44   23   44 1
    45   24   25 1
    46   24   26 1
    47   24   27 1
@<TRIPOS>MOLECULE
CHEMBL514969
   44    47     0     0     0
SMALL
USER_CHARGES

@<TRIPOS>ATOM
      1 C1         -0.9313    0.8665    0.6429 C.ar      1 <0>        -0.1213
      2 C2          0.1136    1.7702    0.6937 C.ar      1 <0>        -0.1370
      3 C3          1.4166    1.3283    0.5614 C.ar      1 <0>        -0.1123
      4 C4          1.6749   -0.0174    0.3787 C.ar      1 <0>        -0.1070
      5 C5          0.6301   -0.9212    0.3288 C.ar      1 <0>        -0.0968
      6 C6         -0.6730   -0.4791    0.4597 C.ar      1 <0>        -0.1231
      7 C7          3.0955   -0.4991    0.2334 C.3       1 <0>         0.1160
      8 N1          3.6911   -0.6705    1.5609 N.pl3     1 <0>        -0.4574
      9 C8          4.2516    0.3352    2.3059 C.2       1 <0>         0.0802
     10 C9          4.7040   -0.1660    3.4664 C.2       1 <0>        -0.1802
     11 C10         4.4032   -1.5984    3.4666 C.ar      1 <0>        -0.1074
     12 C11         3.7638   -1.8575    2.2406 C.ar      1 <0>         0.1247
     13 C12         3.3496   -3.1683    1.9448 C.ar      1 <0>        -0.1208
     14 C13         3.5712   -4.1862    2.8730 C.ar      1 <0>        -0.0968
     15 C14         4.1935   -3.9139    4.0770 C.ar      1 <0>        -0.1475
     16 C15         4.6153   -2.6349    4.3763 C.ar      1 <0>        -0.0957
     17 C16         2.6864   -3.4643    0.6653 C.2       1 <0>         0.5305
     18 O1          1.5035   -3.7765    0.6473 O.co2     1 <0>        -0.6744
     19 O2          3.3177   -3.3984   -0.3806 O.co2     1 <0>        -0.6818
     20 C17         5.4034    0.6062    4.5545 C.3       1 <0>        -0.0341
     21 C18         4.9432    2.0658    4.5180 C.3       1 <0>        -0.1235
     22 C19         5.8438    2.8601    3.5752 C.3       1 <0>        -0.1164
     23 C20         5.7543    2.3054    2.1561 C.3       1 <0>        -0.1136
     24 C21         4.3398    1.7853    1.8925 C.3       1 <0>        -0.0571
     25 H1         -1.9491    1.2113    0.7507 H         1 <0>         0.1153
     26 H2         -0.0882    2.8215    0.8364 H         1 <0>         0.1153
     27 H3          2.2329    2.0343    0.6003 H         1 <0>         0.1164
     28 H4          0.8319   -1.9725    0.1857 H         1 <0>         0.1652
     29 H5         -1.4893   -1.1851    0.4203 H         1 <0>         0.1201
     30 H6          3.1036   -1.4528   -0.2943 H         1 <0>         0.1420
     31 H7          3.6716    0.2337   -0.3315 H         1 <0>         0.0803
     32 H8          3.2540   -5.1941    2.6494 H         1 <0>         0.1165
     33 H9          4.3570   -4.7111    4.7870 H         1 <0>         0.1130
     34 H10         5.0996   -2.4335    5.3204 H         1 <0>         0.1101
     35 H11         5.1583    0.1719    5.5237 H         1 <0>         0.0627
     36 H12         6.4811    0.5608    4.3975 H         1 <0>         0.0626
     37 H13         3.9137    2.1133    4.1629 H         1 <0>         0.0694
     38 H14         5.0018    2.4904    5.5201 H         1 <0>         0.0592
     39 H15         5.5310    3.9043    3.5736 H         1 <0>         0.0572
     40 H16         6.8749    2.7947    3.9226 H         1 <0>         0.0611
     41 H17         5.9890    3.0954    1.4427 H         1 <0>         0.0644
     42 H18         6.4680    1.4897    2.0401 H         1 <0>         0.0685
     43 H19         4.1118    1.8749    0.8303 H         1 <0>         0.0686
     44 H20         3.6238    2.3716    2.4685 H         1 <0>         0.0847
@<TRIPOS>BOND
     1    1    6 ar
     2    1    2 ar
     3    1   25 1
     4    2    3 ar
     5    2   26 1
     6    3    4 ar
     7    3   27 1
     8    4    5 ar
     9    4    7 1
    10    5    6 ar
    11    5   28 1
    12    6   29 1
    13    7    8 1
    14    7   30 1
    15    7   31 1
    16    8   12 1
    17    8    9 1
    18    9   24 1
    19    9   10 2
    20   10   11 1
    21   10   20 1
    22   11   16 ar
    23   11   12 ar
    24   12   13 ar
    25   13   14 ar
    26   13   17 1
    27   14   15 ar
    28   14   32 1
    29   15   16 ar
    30   15   33 1
    31   16   34 1
    32   17   18 2
    33   17   19 1
    34   20   21 1
    35   20   35 1
    36   20   36 1
    37   21   22 1
    38   21   37 1
    39   21   38 1
    40   22   23 1
    41   22   39 1
    42   22   40 1
    43   23   24 1
    44   23   41 1
    45   23   42 1
    46   24   43 1
    47   24   44 1
@<TRIPOS>MOLECULE
CHEMBL474743
   41    44     0     0     0
SMALL
USER_CHARGES

@<TRIPOS>ATOM
      1 C1         -0.6658    1.7641    1.0553 C.ar      1 <0>        -0.1299
      2 C2          0.3259    2.6912    0.7931 C.ar      1 <0>        -0.0932
      3 C3          1.5717    2.2698    0.3691 C.ar      1 <0>        -0.1669
      4 C4          1.8268    0.9184    0.2069 C.ar      1 <0>         0.1005
      5 C5          0.8331   -0.0089    0.4698 C.ar      1 <0>        -0.1363
      6 C6         -0.4123    0.4149    0.8938 C.ar      1 <0>        -0.0746
      7 C7          1.1089   -1.4799    0.2933 C.3       1 <0>         0.1183
      8 N1          1.3875   -2.0846    1.5983 N.pl3     1 <0>        -0.4528
      9 C8          2.5972   -2.0445    2.2427 C.2       1 <0>         0.0723
     10 C9          2.5076   -2.6974    3.4209 C.2       1 <0>        -0.1844
     11 C10         1.1480   -3.1853    3.5329 C.ar      1 <0>        -0.1032
     12 C11         0.4843   -2.7632    2.3523 C.ar      1 <0>         0.1189
     13 C12        -0.8735   -3.0747    2.1454 C.ar      1 <0>        -0.1219
     14 C13        -1.5140   -3.8068    3.1549 C.ar      1 <0>        -0.0989
     15 C14        -0.8550   -4.2069    4.2987 C.ar      1 <0>        -0.1489
     16 C15         0.4830   -3.9181    4.5193 C.ar      1 <0>        -0.0941
     17 C16        -1.5853   -2.6519    0.9291 C.2       1 <0>         0.5340
     18 O1         -2.4449   -1.7837    0.9940 O.co2     1 <0>        -0.6728
     19 O2         -1.3176   -3.1685   -0.1471 O.co2     1 <0>        -0.6773
     20 C17         3.6461   -2.8575    4.3958 C.3       1 <0>        -0.0353
     21 C18         4.9589   -2.5441    3.6683 C.3       1 <0>        -0.1177
     22 C19         4.8210   -1.2111    2.9271 C.3       1 <0>        -0.1087
     23 C20         3.8600   -1.3813    1.7454 C.3       1 <0>        -0.0718
     24 F1          3.0443    0.5053   -0.2079 F         1 <0>        -0.1373
     25 H1         -1.6378    2.0941    1.3909 H         1 <0>         0.1291
     26 H2          0.1267    3.7451    0.9193 H         1 <0>         0.1282
     27 H3          2.3461    2.9941    0.1640 H         1 <0>         0.1305
     28 H4         -1.1876   -0.3084    1.0992 H         1 <0>         0.1757
     29 H5          0.2386   -1.9619   -0.1522 H         1 <0>         0.1471
     30 H6          1.9715   -1.6120   -0.3599 H         1 <0>         0.0848
     31 H7         -2.5556   -4.0652    3.0335 H         1 <0>         0.1133
     32 H8         -1.3976   -4.7690    5.0444 H         1 <0>         0.1093
     33 H9          0.9867   -4.2365    5.4200 H         1 <0>         0.1187
     34 H10         3.5149   -2.1663    5.2285 H         1 <0>         0.0630
     35 H11         3.6688   -3.8821    4.7671 H         1 <0>         0.0654
     36 H12         5.7694   -2.4748    4.3938 H         1 <0>         0.0621
     37 H13         5.1769   -3.3372    2.9531 H         1 <0>         0.0627
     38 H14         4.4294   -0.4555    3.6081 H         1 <0>         0.0640
     39 H15         5.7977   -0.8973    2.5588 H         1 <0>         0.0655
     40 H16         4.3251   -2.0056    0.9825 H         1 <0>         0.0739
     41 H17         3.6195   -0.4045    1.3258 H         1 <0>         0.0891
@<TRIPOS>BOND
     1    1    6 ar
     2    1    2 ar
     3    1   25 1
     4    2    3 ar
     5    2   26 1
     6    3    4 ar
     7    3   27 1
     8    4    5 ar
     9    4   24 1
    10    5    6 ar
    11    5    7 1
    12    6   28 1
    13    7    8 1
    14    7   29 1
    15    7   30 1
    16    8   12 1
    17    8    9 1
    18    9   23 1
    19    9   10 2
    20   10   11 1
    21   10   20 1
    22   11   16 ar
    23   11   12 ar
    24   12   13 ar
    25   13   14 ar
    26   13   17 1
    27   14   15 ar
    28   14   31 1
    29   15   16 ar
    30   15   32 1
    31   16   33 1
    32   17   18 2
    33   17   19 1
    34   20   21 1
    35   20   34 1
    36   20   35 1
    37   21   22 1
    38   21   36 1
    39   21   37 1
    40   22   23 1
    41   22   38 1
    42   22   39 1
    43   23   40 1
    44   23   41 1
@<TRIPOS>MOLECULE
CHEMBL515905
   41    44     0     0     0
SMALL
USER_CHARGES

@<TRIPOS>ATOM
      1 C1          0.0696    1.3907    0.9273 C.ar      1 <0>        -0.1471
      2 C2          1.1500    2.0889    0.4293 C.ar      1 <0>        -0.0945
      3 C3          2.2923    1.4055    0.0103 C.ar      1 <0>        -0.1039
      4 C4          3.5776    1.8149   -0.5486 C.2       1 <0>        -0.1852
      5 C5          4.2953    0.6961   -0.7618 C.2       1 <0>         0.0761
      6 N1          3.5655   -0.3950   -0.3802 N.pl3     1 <0>        -0.4548
      7 C6          2.3418    0.0009    0.0955 C.ar      1 <0>         0.1228
      8 C7          1.2328   -0.6964    0.6056 C.ar      1 <0>        -0.1246
      9 C8          0.1035    0.0117    1.0179 C.ar      1 <0>        -0.0943
     10 C9          1.2628   -2.1641    0.7039 C.2       1 <0>         0.5297
     11 O1          0.4868   -2.8376    0.0397 O.co2     1 <0>        -0.6743
     12 O2          2.0636   -2.7110    1.4498 O.co2     1 <0>        -0.6788
     13 C10         4.0235   -1.7839   -0.4668 C.3       1 <0>         0.1093
     14 C11         3.8201   -2.2933   -1.8705 C.ar      1 <0>        -0.1122
     15 C12         2.5908   -2.7988   -2.2504 C.ar      1 <0>        -0.0694
     16 C13         2.4029   -3.2659   -3.5374 C.ar      1 <0>        -0.1523
     17 C14         3.4465   -3.2273   -4.4465 C.ar      1 <0>         0.0936
     18 C15         4.6773   -2.7207   -4.0649 C.ar      1 <0>        -0.1654
     19 C16         4.8613   -2.2494   -2.7788 C.ar      1 <0>        -0.0845
     20 F1          3.2641   -3.6839   -5.7049 F         1 <0>        -0.1456
     21 C17         5.6924    0.6947   -1.3385 C.3       1 <0>        -0.0593
     22 C18         5.9476    2.0534   -2.0003 C.3       1 <0>        -0.1106
     23 C19         5.5795    3.1749   -1.0249 C.3       1 <0>        -0.1176
     24 C20         4.0566    3.2120   -0.8464 C.3       1 <0>        -0.0366
     25 H1         -0.8094    1.9268    1.2536 H         1 <0>         0.1137
     26 H2          1.1117    3.1662    0.3633 H         1 <0>         0.1107
     27 H3         -0.7501   -0.5211    1.4102 H         1 <0>         0.1178
     28 H4          5.0821   -1.8339   -0.2120 H         1 <0>         0.0815
     29 H5          3.4528   -2.3987    0.2291 H         1 <0>         0.1536
     30 H6          1.7770   -2.8292   -1.5410 H         1 <0>         0.1689
     31 H7          1.4425   -3.6611   -3.8339 H         1 <0>         0.1347
     32 H8          5.4921   -2.6904   -4.7731 H         1 <0>         0.1309
     33 H9          5.8199   -1.8501   -2.4822 H         1 <0>         0.1285
     34 H10         6.4177    0.5340   -0.5408 H         1 <0>         0.0763
     35 H11         5.7807   -0.0972   -2.0823 H         1 <0>         0.0766
     36 H12         7.0013    2.1353   -2.2670 H         1 <0>         0.0664
     37 H13         5.3377    2.1395   -2.8997 H         1 <0>         0.0659
     38 H14         6.0544    2.9896   -0.0614 H         1 <0>         0.0631
     39 H15         5.9226    4.1301   -1.4225 H         1 <0>         0.0625
     40 H16         3.5889    3.5722   -1.7627 H         1 <0>         0.0630
     41 H17         3.8009    3.8716   -0.0172 H         1 <0>         0.0654
@<TRIPOS>BOND
     1    1    9 ar
     2    1    2 ar
     3    1   25 1
     4    2    3 ar
     5    2   26 1
     6    3    7 ar
     7    3    4 1
     8    4   24 1
     9    4    5 2
    10    5    6 1
    11    5   21 1
    12    6    7 1
    13    6   13 1
    14    7    8 ar
    15    8    9 ar
    16    8   10 1
    17    9   27 1
    18   10   11 2
    19   10   12 1
    20   13   14 1
    21   13   28 1
    22   13   29 1
    23   14   19 ar
    24   14   15 ar
    25   15   16 ar
    26   15   30 1
    27   16   17 ar
    28   16   31 1
    29   17   18 ar
    30   17   20 1
    31   18   19 ar
    32   18   32 1
    33   19   33 1
    34   21   22 1
    35   21   34 1
    36   21   35 1
    37   22   23 1
    38   22   36 1
    39   22   37 1
    40   23   24 1
    41   23   38 1
    42   23   39 1
    43   24   40 1
    44   24   41 1
