@<TRIPOS>MOLECULE
ZINC03233809
   72    75     0     0     0
SMALL
USER_CHARGES
2-(hexyl-oxo-BLAHyl)oxy-N-(2-isopropyl-6-methyl-phenyl)-acetamide
@<TRIPOS>ATOM
      1 C1          3.6514    9.6346   -1.7410 C.3       1 <0>        -0.1540
      2 C2          3.7326    8.3773   -2.6090 C.3       1 <0>        -0.1257
      3 C3          4.2310    7.2044   -1.7624 C.3       1 <0>        -0.1197
      4 C4          4.3122    5.9471   -2.6304 C.3       1 <0>        -0.1194
      5 C5          4.8106    4.7741   -1.7838 C.3       1 <0>        -0.1112
      6 C6          4.8918    3.5168   -2.6519 C.3       1 <0>        -0.0731
      7 C7          5.3827    2.3616   -1.8180 C.ar      1 <0>        -0.1202
      8 C8          6.7120    2.0514   -1.8050 C.ar      1 <0>        -0.0162
      9 C9          7.1670    0.9748   -1.0356 C.ar      1 <0>        -0.1660
     10 C10         6.2564    0.2188   -0.2741 C.ar      1 <0>         0.1827
     11 C11         4.9107    0.5512   -0.2938 C.ar      1 <0>        -0.2306
     12 C12         4.4775    1.6207   -1.0610 C.ar      1 <0>         0.1893
     13 O1          3.1597    1.9459   -1.0795 O.3       1 <0>        -0.2696
     14 C13         2.2824    1.1437   -0.2864 C.3       1 <0>         0.0344
     15 C14         0.8704    1.6501   -0.4311 C.2       1 <0>         0.5145
     16 O2          0.6382    2.6040   -1.1433 O.2       1 <0>        -0.4863
     17 N1         -0.1344    1.0429    0.2308 N.am      1 <0>        -0.6712
     18 C15        -1.4341    1.5555    0.1527 C.ar      1 <0>         0.1361
     19 C16        -1.6727    2.8936    0.4383 C.ar      1 <0>        -0.0691
     20 C17        -2.9555    3.3979    0.3543 C.ar      1 <0>        -0.1131
     21 C18        -4.0039    2.5691   -0.0019 C.ar      1 <0>        -0.1139
     22 C19        -3.7705    1.2353   -0.2813 C.ar      1 <0>        -0.1097
     23 C20        -2.4887    0.7262   -0.2050 C.ar      1 <0>        -0.0800
     24 C21        -2.2351   -0.7276   -0.5102 C.3       1 <0>        -0.0560
     25 C22        -3.0364   -1.5994    0.4587 C.3       1 <0>        -0.1456
     26 C23        -2.6682   -1.0304   -1.9461 C.3       1 <0>        -0.1437
     27 C24        -0.5320    3.7957    0.8335 C.3       1 <0>        -0.1086
     28 O3          6.7016   -0.8190    0.4658 O.3       1 <0>        -0.2669
     29 C25         8.0005   -1.1517    0.4964 C.2       1 <0>         0.5243
     30 O4          8.3536   -2.0964    1.1791 O.2       1 <0>        -0.4603
     31 C26         8.9709   -0.4370   -0.2419 C.2       1 <0>        -0.2416
     32 C27         8.5870    0.6161   -1.0060 C.2       1 <0>         0.0174
     33 C28         9.7826    1.2254   -1.7006 C.3       1 <0>        -0.0909
     34 C29        11.0095    0.6859   -0.9330 C.3       1 <0>        -0.1197
     35 C30        10.4672   -0.6373   -0.3505 C.3       1 <0>        -0.0590
     36 H1          3.2963   10.4702   -2.3441 H         1 <0>         0.0531
     37 H2          2.9602    9.4625   -0.9159 H         1 <0>         0.0531
     38 H3          4.6398    9.8668   -1.3445 H         1 <0>         0.0528
     39 H4          4.4238    8.5494   -3.4341 H         1 <0>         0.0600
     40 H5          2.7442    8.1451   -3.0055 H         1 <0>         0.0609
     41 H6          3.5398    7.0322   -0.9373 H         1 <0>         0.0606
     42 H7          5.2194    7.4366   -1.3659 H         1 <0>         0.0596
     43 H8          5.0034    6.1192   -3.4555 H         1 <0>         0.0608
     44 H9          3.3238    5.7148   -3.0269 H         1 <0>         0.0643
     45 H10         4.1194    4.6020   -0.9588 H         1 <0>         0.0653
     46 H11         5.7990    5.0064   -1.3873 H         1 <0>         0.0601
     47 H12         5.5830    3.6890   -3.4769 H         1 <0>         0.0747
     48 H13         3.9034    3.2846   -3.0484 H         1 <0>         0.0828
     49 H14         7.4095    2.6320   -2.3905 H         1 <0>         0.1472
     50 H15         4.2025   -0.0216    0.2864 H         1 <0>         0.1496
     51 H16         2.5836    1.2011    0.7596 H         1 <0>         0.1017
     52 H17         2.3333    0.1082   -0.6229 H         1 <0>         0.1012
     53 H18         0.0426    0.2483    0.7582 H         1 <0>         0.4099
     54 H19        -3.1411    4.4394    0.5716 H         1 <0>         0.1261
     55 H20        -5.0070    2.9648   -0.0622 H         1 <0>         0.1254
     56 H21        -4.5912    0.5909   -0.5598 H         1 <0>         0.1260
     57 H22        -1.1724   -0.9423   -0.3983 H         1 <0>         0.0730
     58 H23        -4.0991   -1.3847    0.3468 H         1 <0>         0.0596
     59 H24        -2.8530   -2.6510    0.2380 H         1 <0>         0.0602
     60 H25        -2.7279   -1.3837    1.4816 H         1 <0>         0.0558
     61 H26        -2.4847   -2.0819   -2.1668 H         1 <0>         0.0596
     62 H27        -3.7309   -0.8156   -2.0580 H         1 <0>         0.0591
     63 H28        -2.0973   -0.4093   -2.6364 H         1 <0>         0.0555
     64 H29        -0.1942    4.3571   -0.0375 H         1 <0>         0.0851
     65 H30        -0.8674    4.4889    1.6049 H         1 <0>         0.0634
     66 H31         0.2907    3.1934    1.2190 H         1 <0>         0.0538
     67 H32         9.7441    2.3129   -1.6368 H         1 <0>         0.0896
     68 H33         9.8189    0.9089   -2.7431 H         1 <0>         0.0985
     69 H34        11.3025    1.3705   -0.1370 H         1 <0>         0.0792
     70 H35        11.8427    0.5004   -1.6107 H         1 <0>         0.0875
     71 H36        10.8968   -0.8215    0.6342 H         1 <0>         0.0825
     72 H37        10.6902   -1.4672   -1.0211 H         1 <0>         0.0851
@<TRIPOS>BOND
     1    1    2 1
     2    1   36 1
     3    1   37 1
     4    1   38 1
     5    2    3 1
     6    2   39 1
     7    2   40 1
     8    3    4 1
     9    3   41 1
    10    3   42 1
    11    4    5 1
    12    4   43 1
    13    4   44 1
    14    5    6 1
    15    5   45 1
    16    5   46 1
    17    6    7 1
    18    6   47 1
    19    6   48 1
    20    7   12 ar
    21    7    8 ar
    22    8    9 ar
    23    8   49 1
    24    9   32 1
    25    9   10 ar
    26   10   11 ar
    27   10   28 1
    28   11   12 ar
    29   11   50 1
    30   12   13 1
    31   13   14 1
    32   14   15 1
    33   14   51 1
    34   14   52 1
    35   15   16 2
    36   15   17 am
    37   17   18 1
    38   17   53 1
    39   18   23 ar
    40   18   19 ar
    41   19   20 ar
    42   19   27 1
    43   20   21 ar
    44   20   54 1
    45   21   22 ar
    46   21   55 1
    47   22   23 ar
    48   22   56 1
    49   23   24 1
    50   24   25 1
    51   24   26 1
    52   24   57 1
    53   25   58 1
    54   25   59 1
    55   25   60 1
    56   26   61 1
    57   26   62 1
    58   26   63 1
    59   27   64 1
    60   27   65 1
    61   27   66 1
    62   28   29 1
    63   29   30 2
    64   29   31 1
    65   31   35 1
    66   31   32 2
    67   32   33 1
    68   33   34 1
    69   33   67 1
    70   33   68 1
    71   34   35 1
    72   34   69 1
    73   34   70 1
    74   35   71 1
    75   35   72 1
@<TRIPOS>MOLECULE
ZINC16309630
   69    71     0     0     0
SMALL
USER_CHARGES
N-(2-cyclohexylsulfanylethyl)-2-[(4-isopropylphenyl)-(p-tolylsulfonyl)amino]acetamide
@<TRIPOS>ATOM
      1 C1          2.9622    4.0200  -11.1976 C.3       1 <0>        -0.1269
      2 C2          2.1096    3.7854   -9.9773 C.ar      1 <0>        -0.0254
      3 C3          0.7329    3.7400  -10.0943 C.ar      1 <0>        -0.1390
      4 C4         -0.0491    3.5248   -8.9749 C.ar      1 <0>        -0.0167
      5 C5          0.5455    3.3539   -7.7387 C.ar      1 <0>        -0.6863
      6 C6          1.9219    3.4040   -7.6210 C.ar      1 <0>        -0.0180
      7 C7          2.7042    3.6150   -8.7410 C.ar      1 <0>        -0.1400
      8 S1         -0.4513    3.0795   -6.3120 S.o2      1 <0>         2.6847
      9 O1         -1.7662    3.5007   -6.6481 O.2       1 <0>        -0.9339
     10 O2          0.2625    3.6187   -5.2079 O.2       1 <0>        -0.9420
     11 N1         -0.5252    1.4424   -6.0738 N.pl3     1 <0>        -0.9272
     12 C8          0.5450    0.7595   -5.3427 C.3       1 <0>         0.1025
     13 C9          0.1566    0.6254   -3.8928 C.2       1 <0>         0.4982
     14 O3         -0.9092    1.0577   -3.5081 O.2       1 <0>        -0.5139
     15 N2          0.9937    0.0251   -3.0237 N.am      1 <0>        -0.7269
     16 C10         0.6161   -0.1053   -1.6142 C.3       1 <0>         0.1366
     17 C11         1.7338   -0.8185   -0.8507 C.3       1 <0>        -0.1057
     18 S2          1.2663   -0.9799    0.8946 S.3       1 <0>        -0.2404
     19 C12         2.6774   -1.8338    1.6498 C.3       1 <0>        -0.0496
     20 C13         2.7940   -3.2424    1.0642 C.3       1 <0>        -0.1143
     21 C14         3.9842   -3.9626    1.7011 C.3       1 <0>        -0.1177
     22 C15         3.7744   -4.0549    3.2138 C.3       1 <0>        -0.1230
     23 C16         3.6578   -2.6463    3.7994 C.3       1 <0>        -0.1146
     24 C17         2.4676   -1.9261    3.1625 C.3       1 <0>        -0.1000
     25 C18        -1.6079    0.7126   -6.5700 C.ar      1 <0>         0.1406
     26 C19        -1.9029    0.7407   -7.9271 C.ar      1 <0>        -0.1268
     27 C20        -2.9712    0.0142   -8.4151 C.ar      1 <0>        -0.0974
     28 C21        -3.7533   -0.7323   -7.5528 C.ar      1 <0>        -0.0750
     29 C22        -3.4655   -0.7583   -6.2004 C.ar      1 <0>        -0.1037
     30 C23        -2.3955   -0.0383   -5.7066 C.ar      1 <0>        -0.1112
     31 C24        -4.9214   -1.5196   -8.0881 C.3       1 <0>        -0.0582
     32 C25        -5.9142   -0.5675   -8.7579 C.3       1 <0>        -0.1462
     33 C26        -4.4220   -2.5397   -9.1133 C.3       1 <0>        -0.1444
     34 H1          3.1206    5.0903  -11.3298 H         1 <0>         0.0814
     35 H2          3.9240    3.5234  -11.0698 H         1 <0>         0.0740
     36 H3          2.4586    3.6161  -12.0758 H         1 <0>         0.0743
     37 H4          0.2684    3.8731  -11.0601 H         1 <0>         0.1356
     38 H5         -1.1247    3.4897   -9.0662 H         1 <0>         0.1431
     39 H6          2.3863    3.2749   -6.6545 H         1 <0>         0.1375
     40 H7          3.7798    3.6501   -8.6497 H         1 <0>         0.1349
     41 H8          1.4651    1.3388   -5.4203 H         1 <0>         0.1157
     42 H9          0.7022   -0.2309   -5.7699 H         1 <0>         0.1205
     43 H10         1.8462   -0.3207   -3.3314 H         1 <0>         0.4020
     44 H11        -0.3039   -0.6846   -1.5366 H         1 <0>         0.0802
     45 H12         0.4590    0.8852   -1.1871 H         1 <0>         0.0811
     46 H13         1.8910   -1.8089   -1.2778 H         1 <0>         0.0886
     47 H14         2.6539   -0.2391   -0.9283 H         1 <0>         0.0880
     48 H15         3.5917   -1.2775    1.4431 H         1 <0>         0.0872
     49 H16         1.8797   -3.7987    1.2709 H         1 <0>         0.0762
     50 H17         2.9435   -3.1767   -0.0135 H         1 <0>         0.0608
     51 H18         4.8985   -3.4064    1.4944 H         1 <0>         0.0622
     52 H19         4.0673   -4.9662    1.2839 H         1 <0>         0.0667
     53 H20         4.6223   -4.5680    3.6676 H         1 <0>         0.0649
     54 H21         2.8601   -4.6112    3.4206 H         1 <0>         0.0647
     55 H22         4.5721   -2.0900    3.5927 H         1 <0>         0.0640
     56 H23         3.5083   -2.7120    4.8771 H         1 <0>         0.0698
     57 H24         2.3846   -0.9225    3.5797 H         1 <0>         0.0731
     58 H25         1.5533   -2.4823    3.3692 H         1 <0>         0.0731
     59 H26        -1.2952    1.3270   -8.6004 H         1 <0>         0.1208
     60 H27        -3.1987    0.0323   -9.4707 H         1 <0>         0.1278
     61 H28        -4.0781   -1.3426   -5.5298 H         1 <0>         0.1264
     62 H29        -2.1711   -0.0593   -4.6504 H         1 <0>         0.1431
     63 H30        -5.4148   -2.0408   -7.2677 H         1 <0>         0.0788
     64 H31        -6.2699    0.1592   -8.0276 H         1 <0>         0.0580
     65 H32        -5.4207   -0.0463   -9.5783 H         1 <0>         0.0572
     66 H33        -6.7591   -1.1369   -9.1451 H         1 <0>         0.0588
     67 H34        -3.7148   -3.2180   -8.6361 H         1 <0>         0.0557
     68 H35        -5.2669   -3.1091   -9.5005 H         1 <0>         0.0588
     69 H36        -3.9286   -2.0185   -9.9337 H         1 <0>         0.0568
@<TRIPOS>BOND
     1    1    2 1
     2    1   34 1
     3    1   35 1
     4    1   36 1
     5    2    7 ar
     6    2    3 ar
     7    3    4 ar
     8    3   37 1
     9    4    5 ar
    10    4   38 1
    11    5    6 ar
    12    5    8 1
    13    6    7 ar
    14    6   39 1
    15    7   40 1
    16    8    9 2
    17    8   10 2
    18    8   11 1
    19   11   12 1
    20   11   25 1
    21   12   13 1
    22   12   41 1
    23   12   42 1
    24   13   14 2
    25   13   15 am
    26   15   16 1
    27   15   43 1
    28   16   17 1
    29   16   44 1
    30   16   45 1
    31   17   18 1
    32   17   46 1
    33   17   47 1
    34   18   19 1
    35   19   24 1
    36   19   20 1
    37   19   48 1
    38   20   21 1
    39   20   49 1
    40   20   50 1
    41   21   22 1
    42   21   51 1
    43   21   52 1
    44   22   23 1
    45   22   53 1
    46   22   54 1
    47   23   24 1
    48   23   55 1
    49   23   56 1
    50   24   57 1
    51   24   58 1
    52   25   30 ar
    53   25   26 ar
    54   26   27 ar
    55   26   59 1
    56   27   28 ar
    57   27   60 1
    58   28   29 ar
    59   28   31 1
    60   29   30 ar
    61   29   61 1
    62   30   62 1
    63   31   32 1
    64   31   33 1
    65   31   63 1
    66   32   64 1
    67   32   65 1
    68   32   66 1
    69   33   67 1
    70   33   68 1
    71   33   69 1
@<TRIPOS>MOLECULE
ZINC33897475
   69    71     0     0     0
SMALL
USER_CHARGES

@<TRIPOS>ATOM
      1 C1         -2.3896    0.5992   -0.3412 C.3       1 <0>        -0.1470
      2 C2         -1.7432   -0.7862   -0.2803 C.3       1 <0>        -0.0845
      3 C3         -0.7599   -0.8321    0.8608 C.ar      1 <0>        -0.0609
      4 C4          0.5594   -0.4741    0.6508 C.ar      1 <0>        -0.1394
      5 C5          1.4645   -0.5148    1.6951 C.ar      1 <0>        -0.0959
      6 C6          1.0533   -0.9135    2.9522 C.ar      1 <0>        -0.1349
      7 C7         -0.2704   -1.2734    3.1663 C.ar      1 <0>         0.1700
      8 C8         -1.1785   -1.2260    2.1164 C.ar      1 <0>        -0.1531
      9 N1         -0.6901   -1.6777    4.4387 N.am      1 <0>        -0.6804
     10 C9          0.1972   -2.2059    5.3047 C.2       1 <0>         0.7149
     11 O1          1.3618   -2.3340    4.9795 O.2       1 <0>        -0.5587
     12 N2         -0.2063   -2.5921    6.5313 N.am      1 <0>        -0.5989
     13 C10         0.7667   -3.1237    7.4889 C.3       1 <0>         0.1128
     14 C11         1.4520   -1.9821    8.1948 C.2       1 <0>         0.5051
     15 O2          1.1147   -0.8393    7.9688 O.2       1 <0>        -0.5129
     16 N3          2.4397   -2.2312    9.0774 N.am      1 <0>        -0.6029
     17 C12         3.1059   -1.1214    9.7636 C.3       1 <0>         0.1536
     18 C13         2.4507   -0.8921   11.1013 C.ar      1 <0>        -0.1174
     19 C14         1.3832   -0.0200   11.2070 C.ar      1 <0>        -0.0660
     20 C15         0.7813    0.1907   12.4331 C.ar      1 <0>        -0.1545
     21 C16         1.2477   -0.4720   13.5557 C.ar      1 <0>         0.1031
     22 C17         2.3169   -1.3453   13.4486 C.ar      1 <0>        -0.1549
     23 C18         2.9139   -1.5584   12.2205 C.ar      1 <0>        -0.0800
     24 F1          0.6603   -0.2665   14.7549 F         1 <0>        -0.1389
     25 C19         2.8471   -3.6116    9.3505 C.3       1 <0>         0.1932
     26 C20         4.0266   -3.9682    8.4829 C.2       1 <0>        -0.1896
     27 C21         5.3462   -3.9648    8.7927 C.2       1 <0>        -0.1010
     28 C22         6.2626   -4.3346    7.8262 C.2       1 <0>        -0.1608
     29 C23         5.8146   -4.6897    6.5972 C.2       1 <0>        -0.1637
     30 S1          4.0479   -4.5124    6.7827 S.3       1 <0>         0.0629
     31 C24         5.8073   -3.5634   10.1701 C.3       1 <0>        -0.1054
     32 C25        -1.6178   -2.4803    6.9071 C.3       1 <0>         0.1353
     33 H1         -2.1987   -2.1541    6.0443 H         1 <0>         0.0854
     34 C26        -1.7655   -1.4592    8.0369 C.3       1 <0>        -0.1589
     35 C27        -2.1290   -3.8424    7.3806 C.3       1 <0>        -0.1365
     36 C28        -1.9020   -4.8825    6.2817 C.3       1 <0>        -0.1527
     37 H2         -1.6181    1.3536   -0.4957 H         1 <0>         0.0564
     38 H3         -3.1007    0.6324   -1.1666 H         1 <0>         0.0579
     39 H4         -2.9103    0.7986    0.5953 H         1 <0>         0.0549
     40 H5         -2.5146   -1.5406   -0.1258 H         1 <0>         0.0706
     41 H6         -1.2224   -0.9856   -1.2169 H         1 <0>         0.0729
     42 H7          0.8833   -0.1624   -0.3312 H         1 <0>         0.1201
     43 H8          2.4941   -0.2350    1.5278 H         1 <0>         0.1233
     44 H9          1.7609   -0.9454    3.7675 H         1 <0>         0.1508
     45 H10        -2.2099   -1.5008    2.2809 H         1 <0>         0.1210
     46 H11        -1.6197   -1.5779    4.6972 H         1 <0>         0.4044
     47 H12         0.2530   -3.7473    8.2205 H         1 <0>         0.1103
     48 H13         1.5087   -3.7211    6.9592 H         1 <0>         0.1103
     49 H14         4.1580   -1.3648    9.9114 H         1 <0>         0.0890
     50 H15         3.0232   -0.2183    9.1590 H         1 <0>         0.0986
     51 H16         1.0198    0.4971   10.3313 H         1 <0>         0.1367
     52 H17        -0.0524    0.8723   12.5156 H         1 <0>         0.1354
     53 H18         2.6817   -1.8625   14.3236 H         1 <0>         0.1365
     54 H19         3.7450   -2.2428   12.1358 H         1 <0>         0.1312
     55 H20         3.1259   -3.7073   10.3999 H         1 <0>         0.1043
     56 H21         2.0184   -4.2850    9.1318 H         1 <0>         0.0942
     57 H22         7.3198   -4.3401    8.0469 H         1 <0>         0.1337
     58 H23         6.3796   -5.0026    5.7316 H         1 <0>         0.1854
     59 H24         5.9425   -4.4551   10.7822 H         1 <0>         0.0725
     60 H25         6.7535   -3.0276   10.0947 H         1 <0>         0.0688
     61 H26         5.0594   -2.9172   10.6297 H         1 <0>         0.0637
     62 H27        -1.4721   -0.4733    7.6762 H         1 <0>         0.0682
     63 H28        -2.8038   -1.4309    8.3676 H         1 <0>         0.0662
     64 H29        -1.1260   -1.7459    8.8716 H         1 <0>         0.0582
     65 H30        -1.5897   -4.1402    8.2798 H         1 <0>         0.0683
     66 H31        -3.1941   -3.7739    7.6017 H         1 <0>         0.0809
     67 H32        -0.8319   -5.0166    6.1239 H         1 <0>         0.0560
     68 H33        -2.3467   -5.8313    6.5820 H         1 <0>         0.0590
     69 H34        -2.3657   -4.5406    5.3565 H         1 <0>         0.0538
@<TRIPOS>BOND
     1    1    2 1
     2    1   37 1
     3    1   38 1
     4    1   39 1
     5    2    3 1
     6    2   40 1
     7    2   41 1
     8    3    8 ar
     9    3    4 ar
    10    4    5 ar
    11    4   42 1
    12    5    6 ar
    13    5   43 1
    14    6    7 ar
    15    6   44 1
    16    7    8 ar
    17    7    9 1
    18    8   45 1
    19    9   10 am
    20    9   46 1
    21   10   11 2
    22   10   12 am
    23   12   13 1
    24   12   32 1
    25   13   14 1
    26   13   47 1
    27   13   48 1
    28   14   15 2
    29   14   16 am
    30   16   17 1
    31   16   25 1
    32   17   18 1
    33   17   49 1
    34   17   50 1
    35   18   23 ar
    36   18   19 ar
    37   19   20 ar
    38   19   51 1
    39   20   21 ar
    40   20   52 1
    41   21   22 ar
    42   21   24 1
    43   22   23 ar
    44   22   53 1
    45   23   54 1
    46   25   26 1
    47   25   55 1
    48   25   56 1
    49   26   30 1
    50   26   27 2
    51   27   28 1
    52   27   31 1
    53   28   29 2
    54   28   57 1
    55   29   30 1
    56   29   58 1
    57   31   59 1
    58   31   60 1
    59   31   61 1
    60   32   33 1
    61   32   34 1
    62   32   35 1
    63   34   62 1
    64   34   63 1
    65   34   64 1
    66   35   36 1
    67   35   65 1
    68   35   66 1
    69   36   67 1
    70   36   68 1
    71   36   69 1
@<TRIPOS>MOLECULE
ZINC36554305
   64    66     0     0     0
SMALL
USER_CHARGES

@<TRIPOS>ATOM
      1 C1          1.4795   -0.0874   -2.5575 C.3       1 <0>        -0.1557
      2 C2          1.6295    1.3148   -1.9641 C.3       1 <0>        -0.0687
      3 C3          2.2076    2.2570   -3.0220 C.3       1 <0>        -0.1687
      4 C4          0.2595    1.8288   -1.5174 C.3       1 <0>        -0.1418
      5 C5          2.5716    1.2609   -0.7598 C.3       1 <0>        -0.1155
      6 C6          4.0212    1.3429   -1.2421 C.3       1 <0>         0.1797
      7 C7          4.3400    2.7804   -1.6577 C.3       1 <0>        -0.2244
      8 C8          4.9599    0.9190   -0.1107 C.3       1 <0>        -0.1579
      9 N1          4.2053    0.4507   -2.3894 N.am      1 <0>        -0.7132
     10 C9          5.3201    0.5412   -3.1414 C.2       1 <0>         0.5070
     11 O1          6.1709    1.3612   -2.8683 O.2       1 <0>        -0.5058
     12 C10         5.5095   -0.3766   -4.3216 C.3       1 <0>         0.2104
     13 H1          4.6984   -0.2248   -5.0338 H         1 <0>         0.1537
     14 C11         5.5031   -1.8082   -3.8508 C.2       1 <0>        -0.0423
     15 C12         4.5501   -2.7195   -4.1166 C.2       1 <0>        -0.1762
     16 C13         4.9440   -3.9207   -3.4836 C.2       1 <0>        -0.2108
     17 C14         6.1142   -3.6717   -2.8688 C.2       1 <0>        -0.0278
     18 O2          6.4509   -2.3921   -3.0995 O.3       1 <0>        -0.1548
     19 N2          6.7899   -0.0813   -4.9694 N.am      1 <0>        -0.5467
     20 C15         7.9891   -0.3373   -4.2971 C.ar      1 <0>         0.1426
     21 C16         8.4730   -1.6364   -4.2072 C.ar      1 <0>        -0.1033
     22 C17         9.6577   -1.8865   -3.5432 C.ar      1 <0>        -0.1040
     23 C18        10.3629   -0.8454   -2.9677 C.ar      1 <0>        -0.1016
     24 C19         9.8839    0.4499   -3.0546 C.ar      1 <0>        -0.0304
     25 C20         8.7014    0.7072   -3.7230 C.ar      1 <0>        -0.0773
     26 Cl1        10.7719    1.7536   -2.3296 Cl        1 <0>        -0.0576
     27 C21         6.8120    0.4371   -6.2133 C.2       1 <0>         0.5787
     28 O3          5.7722    0.7505   -6.7599 O.2       1 <0>        -0.5169
     29 C22         8.0994    0.6246   -6.9124 C.ar      1 <0>        -0.1529
     30 C23         9.2717    0.0840   -6.3792 C.ar      1 <0>        -0.0879
     31 C24        10.4704    0.2620   -7.0357 C.ar      1 <0>        -0.1606
     32 C25        10.5140    0.9766   -8.2232 C.ar      1 <0>         0.1322
     33 C26         9.3534    1.5158   -8.7567 C.ar      1 <0>        -0.1651
     34 C27         8.1481    1.3382   -8.1119 C.ar      1 <0>        -0.0246
     35 F1         11.6918    1.1485   -8.8624 F         1 <0>        -0.1322
     36 H2          2.1954   -0.2170   -3.3692 H         1 <0>         0.0560
     37 H3          1.6689   -0.8315   -1.7838 H         1 <0>         0.0604
     38 H4          0.4674   -0.2128   -2.9421 H         1 <0>         0.0657
     39 H5          1.6424    2.1538   -3.9483 H         1 <0>         0.0500
     40 H6          2.1402    3.2858   -2.6680 H         1 <0>         0.0640
     41 H7          3.2519    2.0028   -3.2033 H         1 <0>         0.0858
     42 H8         -0.1524    1.1576   -0.7637 H         1 <0>         0.0556
     43 H9          0.3663    2.8278   -1.0947 H         1 <0>         0.0560
     44 H10        -0.4117    1.8672   -2.3754 H         1 <0>         0.0568
     45 H11         2.3614    2.0998   -0.0963 H         1 <0>         0.0819
     46 H12         2.4201    0.3253   -0.2216 H         1 <0>         0.0698
     47 H13         4.5079    3.3871   -0.7678 H         1 <0>         0.0556
     48 H14         5.2363    2.7891   -2.2778 H         1 <0>         0.0992
     49 H15         3.5028    3.1892   -2.2235 H         1 <0>         0.0945
     50 H16         4.7941   -0.1323    0.1244 H         1 <0>         0.0530
     51 H17         5.9941    1.0627   -0.4236 H         1 <0>         0.0673
     52 H18         4.7603    1.5248    0.7732 H         1 <0>         0.0646
     53 H19         3.5249   -0.2052   -2.6078 H         1 <0>         0.4041
     54 H20         3.6554   -2.5633   -4.7010 H         1 <0>         0.1535
     55 H21         4.4081   -4.8583   -3.4918 H         1 <0>         0.1533
     56 H22         6.6878   -4.3814   -2.2911 H         1 <0>         0.2057
     57 H23         7.9229   -2.4502   -4.6561 H         1 <0>         0.1350
     58 H24        10.0338   -2.8964   -3.4730 H         1 <0>         0.1410
     59 H25        11.2892   -1.0438   -2.4489 H         1 <0>         0.1397
     60 H26         8.3299    1.7188   -3.7947 H         1 <0>         0.1473
     61 H27         9.2389   -0.4722   -5.4540 H         1 <0>         0.1708
     62 H28        11.3775   -0.1556   -6.6243 H         1 <0>         0.1415
     63 H29         9.3930    2.0719   -9.6817 H         1 <0>         0.1453
     64 H30         7.2439    1.7545   -8.5308 H         1 <0>         0.1473
@<TRIPOS>BOND
     1    1    2 1
     2    1   36 1
     3    1   37 1
     4    1   38 1
     5    2    3 1
     6    2    4 1
     7    2    5 1
     8    3   39 1
     9    3   40 1
    10    3   41 1
    11    4   42 1
    12    4   43 1
    13    4   44 1
    14    5    6 1
    15    5   45 1
    16    5   46 1
    17    6    7 1
    18    6    8 1
    19    6    9 1
    20    7   47 1
    21    7   48 1
    22    7   49 1
    23    8   50 1
    24    8   51 1
    25    8   52 1
    26    9   10 am
    27    9   53 1
    28   10   11 2
    29   10   12 1
    30   12   13 1
    31   12   14 1
    32   12   19 1
    33   14   18 1
    34   14   15 2
    35   15   16 1
    36   15   54 1
    37   16   17 2
    38   16   55 1
    39   17   18 1
    40   17   56 1
    41   19   20 1
    42   19   27 am
    43   20   25 ar
    44   20   21 ar
    45   21   22 ar
    46   21   57 1
    47   22   23 ar
    48   22   58 1
    49   23   24 ar
    50   23   59 1
    51   24   25 ar
    52   24   26 1
    53   25   60 1
    54   27   28 2
    55   27   29 1
    56   29   34 ar
    57   29   30 ar
    58   30   31 ar
    59   30   61 1
    60   31   32 ar
    61   31   62 1
    62   32   33 ar
    63   32   35 1
    64   33   34 ar
    65   33   63 1
    66   34   64 1
@<TRIPOS>MOLECULE
ZINC36598578
   77    80     0     0     0
SMALL
USER_CHARGES

@<TRIPOS>ATOM
      1 C1          0.2083    0.0335    1.8852 C.3       1 <0>        -0.0793
      2 C2          0.1623   -1.2730    1.1357 C.2       1 <0>        -0.0106
      3 C3         -0.9518   -1.9433    0.7909 C.2       1 <0>        -0.2045
      4 C4         -0.5340   -3.1076    0.1063 C.2       1 <0>        -0.1884
      5 C5          0.8104   -3.0792    0.0737 C.2       1 <0>        -0.0318
      6 O1          1.2265   -1.9629    0.6937 O.3       1 <0>        -0.1701
      7 C6          1.6989   -4.1206   -0.5564 C.3       1 <0>         0.1770
      8 N1          1.8977   -3.8010   -1.9723 N.am      1 <0>        -0.5848
      9 C7          3.0195   -2.9520   -2.3810 C.3       1 <0>         0.1284
     10 H1          3.0702   -2.9159   -3.4692 H         1 <0>         0.1282
     11 C8          2.8153   -1.5382   -1.8329 C.3       1 <0>        -0.0619
     12 H2          2.6638   -1.5850   -0.7545 H         1 <0>         0.0987
     13 C9          4.0513   -0.6895   -2.1378 C.3       1 <0>        -0.1679
     14 C10         1.6063   -0.9169   -2.4835 C.ar      1 <0>        -0.0729
     15 C11         1.4698   -0.9464   -3.8588 C.ar      1 <0>        -0.0985
     16 C12         0.3609   -0.3765   -4.4557 C.ar      1 <0>        -0.1152
     17 C13        -0.6119    0.2225   -3.6772 C.ar      1 <0>        -0.1209
     18 C14        -0.4758    0.2512   -2.3019 C.ar      1 <0>        -0.1190
     19 C15         0.6311   -0.3225   -1.7047 C.ar      1 <0>        -0.1120
     20 C16         4.3045   -3.5210   -1.8368 C.2       1 <0>         0.5126
     21 O2          4.2744   -4.4512   -1.0592 O.2       1 <0>        -0.5266
     22 N2          5.4871   -2.9962   -2.2143 N.am      1 <0>        -0.7253
     23 C17         6.7383   -3.6195   -1.7760 C.3       1 <0>         0.1437
     24 C18         7.1129   -3.0913   -0.3897 C.3       1 <0>        -0.1279
     25 C19         8.4197   -3.7422    0.0680 C.3       1 <0>        -0.1174
     26 C20         9.5334   -3.4034   -0.9249 C.3       1 <0>        -0.1227
     27 C21         9.1588   -3.9316   -2.3111 C.3       1 <0>        -0.1159
     28 C22         7.8520   -3.2807   -2.7689 C.3       1 <0>        -0.1277
     29 C23         1.0486   -4.2879   -2.8987 C.2       1 <0>         0.5269
     30 O3          1.2132   -4.0232   -4.0708 O.2       1 <0>        -0.5231
     31 C24        -0.1054   -5.1612   -2.4783 C.3       1 <0>        -0.1382
     32 C25        -0.9076   -5.5759   -3.7133 C.3       1 <0>        -0.0324
     33 H3         -1.2138   -4.6860   -4.2633 H         1 <0>         0.0861
     34 C26        -0.0393   -6.4578   -4.6130 C.3       1 <0>        -0.1490
     35 C27        -2.1295   -6.3460   -3.2834 C.ar      1 <0>        -0.0771
     36 C28        -1.9901   -7.5165   -2.5614 C.ar      1 <0>        -0.1155
     37 C29        -3.1110   -8.2229   -2.1670 C.ar      1 <0>        -0.1177
     38 C30        -4.3712   -7.7586   -2.4942 C.ar      1 <0>        -0.1239
     39 C31        -4.5106   -6.5875   -3.2154 C.ar      1 <0>        -0.1175
     40 C32        -3.3899   -5.8788   -3.6061 C.ar      1 <0>        -0.1149
     41 H4          1.2459    0.3400    2.0179 H         1 <0>         0.0755
     42 H5         -0.3262    0.7963    1.3190 H         1 <0>         0.0853
     43 H6         -0.2614   -0.0906    2.8610 H         1 <0>         0.0866
     44 H7         -1.9701   -1.6488    0.9978 H         1 <0>         0.1457
     45 H8         -1.1719   -3.8731   -0.3103 H         1 <0>         0.1458
     46 H9          2.6628   -4.1319   -0.0477 H         1 <0>         0.1241
     47 H10         1.2297   -5.1005   -0.4676 H         1 <0>         0.1103
     48 H11         4.2086   -0.6510   -3.2157 H         1 <0>         0.0634
     49 H12         3.9018    0.3204   -1.7561 H         1 <0>         0.0712
     50 H13         4.9240   -1.1335   -1.6589 H         1 <0>         0.0755
     51 H14         2.2298   -1.4144   -4.4670 H         1 <0>         0.1172
     52 H15         0.2545   -0.3989   -5.5302 H         1 <0>         0.1184
     53 H16        -1.4779    0.6684   -4.1436 H         1 <0>         0.1174
     54 H17        -1.2356    0.7194   -1.6937 H         1 <0>         0.1160
     55 H18         0.7356   -0.3034   -0.6300 H         1 <0>         0.1235
     56 H19         5.5097   -2.2059   -2.7762 H         1 <0>         0.4044
     57 H20         6.6091   -4.7008   -1.7300 H         1 <0>         0.0880
     58 H21         7.2422   -2.0099   -0.4357 H         1 <0>         0.0634
     59 H22         6.3196   -3.3326    0.3176 H         1 <0>         0.0685
     60 H23         8.6866   -3.3659    1.0556 H         1 <0>         0.0653
     61 H24         8.2905   -4.8235    0.1140 H         1 <0>         0.0643
     62 H25         9.6627   -2.3221   -0.9709 H         1 <0>         0.0629
     63 H26        10.4644   -3.8671   -0.5988 H         1 <0>         0.0645
     64 H27         9.9522   -3.6903   -3.0185 H         1 <0>         0.0681
     65 H28         9.0295   -5.0129   -2.2652 H         1 <0>         0.0653
     66 H29         7.5851   -3.6570   -3.7565 H         1 <0>         0.0692
     67 H30         7.9813   -2.1994   -2.8148 H         1 <0>         0.0686
     68 H31         0.2760   -6.0509   -1.9772 H         1 <0>         0.0956
     69 H32        -0.7499   -4.6077   -1.7954 H         1 <0>         0.0992
     70 H33         0.2669   -7.3476   -4.0630 H         1 <0>         0.0502
     71 H34        -0.6108   -6.7532   -5.4928 H         1 <0>         0.0551
     72 H35         0.8445   -5.9008   -4.9239 H         1 <0>         0.0775
     73 H36        -1.0056   -7.8794   -2.3058 H         1 <0>         0.1200
     74 H37        -3.0021   -9.1379   -1.6035 H         1 <0>         0.1212
     75 H38        -5.2469   -8.3108   -2.1867 H         1 <0>         0.1204
     76 H39        -5.4952   -6.2249   -3.4713 H         1 <0>         0.1211
     77 H40        -3.4989   -4.9620   -4.1664 H         1 <0>         0.1205
@<TRIPOS>BOND
     1    1    2 1
     2    1   41 1
     3    1   42 1
     4    1   43 1
     5    2    6 1
     6    2    3 2
     7    3    4 1
     8    3   44 1
     9    4    5 2
    10    4   45 1
    11    5    6 1
    12    5    7 1
    13    7    8 1
    14    7   46 1
    15    7   47 1
    16    8    9 1
    17    8   29 am
    18    9   10 1
    19    9   11 1
    20    9   20 1
    21   11   12 1
    22   11   13 1
    23   11   14 1
    24   13   48 1
    25   13   49 1
    26   13   50 1
    27   14   19 ar
    28   14   15 ar
    29   15   16 ar
    30   15   51 1
    31   16   17 ar
    32   16   52 1
    33   17   18 ar
    34   17   53 1
    35   18   19 ar
    36   18   54 1
    37   19   55 1
    38   20   21 2
    39   20   22 am
    40   22   23 1
    41   22   56 1
    42   23   28 1
    43   23   24 1
    44   23   57 1
    45   24   25 1
    46   24   58 1
    47   24   59 1
    48   25   26 1
    49   25   60 1
    50   25   61 1
    51   26   27 1
    52   26   62 1
    53   26   63 1
    54   27   28 1
    55   27   64 1
    56   27   65 1
    57   28   66 1
    58   28   67 1
    59   29   30 2
    60   29   31 1
    61   31   32 1
    62   31   68 1
    63   31   69 1
    64   32   33 1
    65   32   34 1
    66   32   35 1
    67   34   70 1
    68   34   71 1
    69   34   72 1
    70   35   40 ar
    71   35   36 ar
    72   36   37 ar
    73   36   73 1
    74   37   38 ar
    75   37   74 1
    76   38   39 ar
    77   38   75 1
    78   39   40 ar
    79   39   76 1
    80   40   77 1
@<TRIPOS>MOLECULE
ZINC03129825
   38    39     0     0     0
SMALL
USER_CHARGES
N-[2,2,2-trichloro-1-[(4-chlorophenyl)thiocarbamoylamino]ethyl]benzamide
@<TRIPOS>ATOM
      1 C1          5.6093    0.3824    1.2495 C.ar      1 <0>        -0.0898
      2 C2          5.0970   -0.8539    0.8983 C.ar      1 <0>        -0.1253
      3 C3          3.7495   -0.9973    0.6392 C.ar      1 <0>        -0.0544
      4 C4          2.9028    0.1084    0.7317 C.ar      1 <0>        -0.1354
      5 C5          3.4271    1.3540    1.0809 C.ar      1 <0>        -0.0876
      6 C6          4.7754    1.4824    1.3430 C.ar      1 <0>        -0.1267
      7 C7          1.4579   -0.0377    0.4549 C.2       1 <0>         0.5601
      8 O1          1.0049   -1.1226    0.1461 O.2       1 <0>        -0.4711
      9 N1          0.6429    1.0319    0.5451 N.am      1 <0>        -0.7310
     10 C8         -0.7889    0.8871    0.2709 C.3       1 <0>         0.3614
     11 H1         -1.0546   -0.1701    0.2755 H         1 <0>         0.1999
     12 C9         -1.5912    1.6193    1.3484 C.3       1 <0>         0.1082
     13 Cl1        -1.1517    3.3679    1.3408 Cl        1 <0>        -0.0892
     14 Cl2        -3.3533    1.4410    1.0109 Cl        1 <0>        -0.0554
     15 Cl3        -1.2140    0.9118    2.9634 Cl        1 <0>        -0.0466
     16 N2         -1.0954    1.4619   -1.0413 N.pl3     1 <0>        -0.6934
     17 C10        -1.3335    0.6527   -2.0925 C.2       1 <0>         0.5502
     18 S1         -1.2777   -1.0469   -1.8944 S.2       1 <0>        -0.5418
     19 N3         -1.6155    1.1815   -3.2997 N.pl3     1 <0>        -0.6259
     20 C11        -1.7753    0.3449   -4.4101 C.ar      1 <0>         0.1211
     21 C12        -1.1698    0.6680   -5.6173 C.ar      1 <0>        -0.1065
     22 C13        -1.3240   -0.1627   -6.7099 C.ar      1 <0>        -0.1074
     23 C14        -2.0913   -1.3096   -6.6058 C.ar      1 <0>        -0.0250
     24 C15        -2.7005   -1.6309   -5.4055 C.ar      1 <0>        -0.1031
     25 C16        -2.5444   -0.8069   -4.3082 C.ar      1 <0>        -0.0551
     26 Cl4        -2.2895   -2.3475   -7.9832 Cl        1 <0>        -0.0652
     27 H2          6.6648    0.4891    1.4520 H         1 <0>         0.1293
     28 H3          5.7533   -1.7087    0.8271 H         1 <0>         0.1327
     29 H4          3.3508   -1.9628    0.3651 H         1 <0>         0.1395
     30 H5          2.7779    2.2144    1.1499 H         1 <0>         0.1215
     31 H6          5.1817    2.4447    1.6177 H         1 <0>         0.1300
     32 H7          1.0043    1.8976    0.7916 H         1 <0>         0.4023
     33 H8         -1.1270    2.4248   -1.1536 H         1 <0>         0.4006
     34 H9         -1.7076    2.1421   -3.3989 H         1 <0>         0.4087
     35 H10        -0.5750    1.5656   -5.7005 H         1 <0>         0.1332
     36 H11        -0.8493    0.0856   -7.6477 H         1 <0>         0.1390
     37 H12        -3.2982   -2.5269   -5.3267 H         1 <0>         0.1406
     38 H13        -3.0198   -1.0583   -3.3716 H         1 <0>         0.1574
@<TRIPOS>BOND
     1    1    6 ar
     2    1    2 ar
     3    1   27 1
     4    2    3 ar
     5    2   28 1
     6    3    4 ar
     7    3   29 1
     8    4    5 ar
     9    4    7 1
    10    5    6 ar
    11    5   30 1
    12    6   31 1
    13    7    8 2
    14    7    9 am
    15    9   10 1
    16    9   32 1
    17   10   11 1
    18   10   12 1
    19   10   16 1
    20   12   13 1
    21   12   14 1
    22   12   15 1
    23   16   17 1
    24   16   33 1
    25   17   18 2
    26   17   19 1
    27   19   20 1
    28   19   34 1
    29   20   25 ar
    30   20   21 ar
    31   21   22 ar
    32   21   35 1
    33   22   23 ar
    34   22   36 1
    35   23   24 ar
    36   23   26 1
    37   24   25 ar
    38   24   37 1
    39   25   38 1
@<TRIPOS>MOLECULE
ZINC13936319
   58    60     0     0     0
SMALL
USER_CHARGES
1-(2,5-dimethylphenyl)-3-[4-[(2,4,6-trimethylphenyl)sulfamoyl]phenyl]thiourea
@<TRIPOS>ATOM
      1 C1         10.9581    4.2770    6.7415 C.3       1 <0>        -0.1118
      2 C2          9.6178    4.7233    7.2663 C.ar      1 <0>        -0.0848
      3 C3          9.5489    5.6979    8.2452 C.ar      1 <0>        -0.1046
      4 C4          8.3212    6.1098    8.7298 C.ar      1 <0>        -0.1155
      5 C5          7.1588    5.5534    8.2325 C.ar      1 <0>        -0.0912
      6 C6          7.2247    4.5709    7.2533 C.ar      1 <0>         0.1102
      7 C7          8.4597    4.1590    6.7690 C.ar      1 <0>        -0.0662
      8 N1          6.0497    4.0013    6.7518 N.pl3     1 <0>        -0.6159
      9 C8          5.9111    3.7992    5.4265 C.2       1 <0>         0.5446
     10 S1          7.2279    4.0952    4.3732 S.2       1 <0>        -0.5707
     11 N2          4.7360    3.3641    4.9304 N.pl3     1 <0>        -0.6347
     12 C9          4.6265    3.0396    3.5741 C.ar      1 <0>         0.1882
     13 C10         5.6481    2.3442    2.9403 C.ar      1 <0>        -0.0976
     14 C11         5.5367    2.0250    1.6012 C.ar      1 <0>        -0.0088
     15 C12         4.4095    2.3967    0.8917 C.ar      1 <0>        -0.6710
     16 C13         3.3931    3.0941    1.5184 C.ar      1 <0>        -0.0021
     17 C14         3.4959    3.4118    2.8586 C.ar      1 <0>        -0.1448
     18 S2          4.2711    1.9870   -0.8164 S.o2      1 <0>         2.6829
     19 O1          5.5872    1.7110   -1.2757 O.2       1 <0>        -0.9523
     20 O2          3.4513    2.9853   -1.4084 O.2       1 <0>        -0.9409
     21 N3          3.4284    0.5646   -0.9120 N.pl3     1 <0>        -1.0554
     22 C15         2.0869    0.5203   -0.5257 C.ar      1 <0>         0.1091
     23 C16         1.1212    1.1646   -1.2886 C.ar      1 <0>        -0.0555
     24 C17        -0.2044    1.1184   -0.9041 C.ar      1 <0>        -0.1228
     25 C18        -0.5709    0.4318    0.2390 C.ar      1 <0>        -0.0667
     26 C19         0.3879   -0.2106    1.0007 C.ar      1 <0>        -0.1260
     27 C20         1.7153   -0.1684    0.6219 C.ar      1 <0>        -0.0657
     28 C21         2.7595   -0.8689    1.4527 C.3       1 <0>        -0.1179
     29 C22        -2.0175    0.3889    0.6589 C.3       1 <0>        -0.1181
     30 C23         1.5195    1.9126   -2.5347 C.3       1 <0>        -0.1199
     31 C24         5.8208    6.0081    8.7560 C.3       1 <0>        -0.1174
     32 H1         11.2389    4.8959    5.8892 H         1 <0>         0.0729
     33 H2         11.7076    4.3780    7.5264 H         1 <0>         0.0660
     34 H3         10.8972    3.2345    6.4291 H         1 <0>         0.0670
     35 H4         10.4561    6.1379    8.6323 H         1 <0>         0.1256
     36 H5          8.2708    6.8708    9.4944 H         1 <0>         0.1280
     37 H6          8.5141    3.3985    6.0041 H         1 <0>         0.1544
     38 H7          5.3346    3.7517    7.3578 H         1 <0>         0.4085
     39 H8          3.9661    3.2759    5.5138 H         1 <0>         0.4112
     40 H9          6.5284    2.0531    3.4941 H         1 <0>         0.1520
     41 H10         6.3307    1.4842    1.1078 H         1 <0>         0.1468
     42 H11         2.5159    3.3868    0.9604 H         1 <0>         0.1431
     43 H12         2.6998    3.9527    3.3485 H         1 <0>         0.1348
     44 H13         3.8665   -0.2378   -1.2363 H         1 <0>         0.4242
     45 H14        -0.9557    1.6194   -1.4965 H         1 <0>         0.1287
     46 H15         0.0984   -0.7457    1.8931 H         1 <0>         0.1251
     47 H16         3.0819   -0.2119    2.2605 H         1 <0>         0.0720
     48 H17         2.3371   -1.7815    1.8732 H         1 <0>         0.0702
     49 H18         3.6147   -1.1198    0.8252 H         1 <0>         0.0685
     50 H19        -2.5025   -0.4748    0.2040 H         1 <0>         0.0733
     51 H20        -2.0786    0.3100    1.7444 H         1 <0>         0.0671
     52 H21        -2.5179    1.3005    0.3322 H         1 <0>         0.0689
     53 H22         1.6513    2.9684   -2.2982 H         1 <0>         0.1074
     54 H23         2.4555    1.5067   -2.9186 H         1 <0>         0.0580
     55 H24         0.7399    1.8037   -3.2887 H         1 <0>         0.0637
     56 H25         5.5374    5.3942    9.6109 H         1 <0>         0.0725
     57 H26         5.8867    7.0516    9.0639 H         1 <0>         0.0755
     58 H27         5.0705    5.9074    7.9717 H         1 <0>         0.0578
@<TRIPOS>BOND
     1    1    2 1
     2    1   32 1
     3    1   33 1
     4    1   34 1
     5    2    7 ar
     6    2    3 ar
     7    3    4 ar
     8    3   35 1
     9    4    5 ar
    10    4   36 1
    11    5    6 ar
    12    5   31 1
    13    6    7 ar
    14    6    8 1
    15    7   37 1
    16    8    9 1
    17    8   38 1
    18    9   10 2
    19    9   11 1
    20   11   12 1
    21   11   39 1
    22   12   17 ar
    23   12   13 ar
    24   13   14 ar
    25   13   40 1
    26   14   15 ar
    27   14   41 1
    28   15   16 ar
    29   15   18 1
    30   16   17 ar
    31   16   42 1
    32   17   43 1
    33   18   19 2
    34   18   20 2
    35   18   21 1
    36   21   22 1
    37   21   44 1
    38   22   27 ar
    39   22   23 ar
    40   23   24 ar
    41   23   30 1
    42   24   25 ar
    43   24   45 1
    44   25   26 ar
    45   25   29 1
    46   26   27 ar
    47   26   46 1
    48   27   28 1
    49   28   47 1
    50   28   48 1
    51   28   49 1
    52   29   50 1
    53   29   51 1
    54   29   52 1
    55   30   53 1
    56   30   54 1
    57   30   55 1
    58   31   56 1
    59   31   57 1
    60   31   58 1
@<TRIPOS>MOLECULE
ZINC20418297
   48    51     0     0     0
SMALL
USER_CHARGES
[3-amino-4-(benzenesulfonyl)-5-[(2-fluorophenyl)amino]-2-thienyl]-(4-fluorophenyl)methanone
@<TRIPOS>ATOM
      1 C1         -2.0158    2.4652    4.4231 C.ar      1 <0>        -0.0585
      2 C2         -1.4071    3.5293    3.7842 C.ar      1 <0>        -0.1347
      3 C3         -1.2581    3.5169    2.4100 C.ar      1 <0>        -0.0218
      4 C4         -1.7176    2.4404    1.6746 C.ar      1 <0>        -0.6615
      5 C5         -2.3309    1.3786    2.3129 C.ar      1 <0>        -0.0209
      6 C6         -2.4753    1.3886    3.6877 C.ar      1 <0>        -0.1330
      7 S1         -1.5280    2.4248   -0.0771 S.o2      1 <0>         2.6074
      8 O1         -1.4184    3.7813   -0.4858 O.2       1 <0>        -0.9477
      9 O2         -2.5292    1.5543   -0.5862 O.2       1 <0>        -0.9332
     10 C7          0.0237    1.6666   -0.4265 C.2       1 <0>        -0.8485
     11 C8          0.1316    0.3006   -0.5010 C.2       1 <0>         0.3997
     12 C9          1.3874   -0.2493   -0.7873 C.2       1 <0>        -0.4275
     13 S2          2.4060    1.2079   -0.9476 S.3       1 <0>         0.1546
     14 C10         1.1506    2.4375   -0.6356 C.2       1 <0>         0.2831
     15 N1          1.2747    3.8151   -0.6102 N.pl3     1 <0>        -0.6128
     16 C11         2.5415    4.4043   -0.6721 C.ar      1 <0>         0.1071
     17 C12         3.6472    3.7323   -0.1680 C.ar      1 <0>        -0.1324
     18 C13         4.8972    4.3169   -0.2306 C.ar      1 <0>        -0.0911
     19 C14         5.0495    5.5701   -0.7949 C.ar      1 <0>        -0.0997
     20 C15         3.9518    6.2435   -1.2988 C.ar      1 <0>        -0.1226
     21 C16         2.6980    5.6626   -1.2441 C.ar      1 <0>         0.0830
     22 F1          1.6263    6.3181   -1.7410 F         1 <0>        -0.1288
     23 C17         1.7520   -1.6013   -0.9160 C.2       1 <0>         0.4908
     24 O3          0.9445   -2.4780   -0.6572 O.2       1 <0>        -0.4949
     25 C18         3.1150   -1.9603   -1.3652 C.ar      1 <0>        -0.1564
     26 C19         3.8740   -1.0468   -2.0987 C.ar      1 <0>        -0.0582
     27 C20         5.1463   -1.3838   -2.5092 C.ar      1 <0>        -0.1572
     28 C21         5.6672   -2.6323   -2.2059 C.ar      1 <0>         0.1224
     29 C22         4.9151   -3.5455   -1.4830 C.ar      1 <0>        -0.1602
     30 C23         3.6444   -3.2159   -1.0621 C.ar      1 <0>        -0.0363
     31 F2          6.9121   -2.9599   -2.6157 F         1 <0>        -0.1336
     32 N2         -0.9759   -0.5154   -0.2981 N.pl3     1 <0>        -0.8514
     33 H1         -2.1326    2.4750    5.4967 H         1 <0>         0.1357
     34 H2         -1.0484    4.3705    4.3587 H         1 <0>         0.1369
     35 H3         -0.7829    4.3484    1.9109 H         1 <0>         0.1371
     36 H4         -2.6939    0.5396    1.7379 H         1 <0>         0.1373
     37 H5         -2.9511    0.5574    4.1867 H         1 <0>         0.1381
     38 H6          0.3770    4.4470   -0.5413 H         1 <0>         0.4719
     39 H7          3.5298    2.7534    0.2730 H         1 <0>         0.1457
     40 H8          5.7570    3.7941    0.1615 H         1 <0>         0.1419
     41 H9          6.0283    6.0241   -0.8425 H         1 <0>         0.1417
     42 H10         4.0744    7.2218   -1.7395 H         1 <0>         0.1470
     43 H11         3.4673   -0.0757   -2.3396 H         1 <0>         0.1391
     44 H12         5.7364   -0.6757   -3.0720 H         1 <0>         0.1431
     45 H13         5.3256   -4.5166   -1.2490 H         1 <0>         0.1431
     46 H14         3.0596   -3.9277   -0.4984 H         1 <0>         0.1445
     47 H15        -0.8725   -1.6087   -0.3613 H         1 <0>         0.4461
     48 H16        -1.9554   -0.0676   -0.0744 H         1 <0>         0.4258
@<TRIPOS>BOND
     1    1    6 ar
     2    1    2 ar
     3    1   33 1
     4    2    3 ar
     5    2   34 1
     6    3    4 ar
     7    3   35 1
     8    4    5 ar
     9    4    7 1
    10    5    6 ar
    11    5   36 1
    12    6   37 1
    13    7    8 2
    14    7    9 2
    15    7   10 1
    16   10   14 2
    17   10   11 1
    18   11   12 2
    19   11   32 1
    20   12   13 1
    21   12   23 1
    22   13   14 1
    23   14   15 1
    24   15   16 1
    25   15   38 1
    26   16   21 ar
    27   16   17 ar
    28   17   18 ar
    29   17   39 1
    30   18   19 ar
    31   18   40 1
    32   19   20 ar
    33   19   41 1
    34   20   21 ar
    35   20   42 1
    36   21   22 1
    37   23   24 2
    38   23   25 1
    39   25   30 ar
    40   25   26 ar
    41   26   27 ar
    42   26   43 1
    43   27   28 ar
    44   27   44 1
    45   28   29 ar
    46   28   31 1
    47   29   30 ar
    48   29   45 1
    49   30   46 1
    50   32   47 1
    51   32   48 1
@<TRIPOS>MOLECULE
ZINC35132400
   42    43     0     0     0
SMALL
USER_CHARGES

@<TRIPOS>ATOM
      1 C1         -1.2818    0.6394    1.6754 C.ar      1 <0>        -0.1010
      2 C2         -0.8142   -0.5009    2.3052 C.ar      1 <0>        -0.1283
      3 C3          0.4696   -0.9456    2.0698 C.ar      1 <0>        -0.0356
      4 C4          1.2995   -0.2416    1.1916 C.ar      1 <0>        -0.0853
      5 C5          0.8195    0.9093    0.5588 C.ar      1 <0>        -0.0935
      6 C6         -0.4665    1.3417    0.8050 C.ar      1 <0>        -0.1335
      7 C7          2.6714   -0.7093    0.9351 C.2       1 <0>        -0.0006
      8 C8          2.9177   -2.0263    0.7856 C.2       1 <0>        -0.2262
      9 C9          1.8065   -2.9637    0.6109 C.2       1 <0>         0.5390
     10 O1          0.6739   -2.5439    0.4624 O.2       1 <0>        -0.4624
     11 N1          2.0380   -4.2915    0.6146 N.am      1 <0>        -0.7311
     12 C10         0.9262   -5.2293    0.4398 C.3       1 <0>         0.3612
     13 H1         -0.0180   -4.7053    0.5884 H         1 <0>         0.1994
     14 C11         1.0479   -6.3608    1.4625 C.3       1 <0>         0.1097
     15 Cl1         0.9978   -5.6731    3.1285 Cl        1 <0>        -0.0501
     16 Cl2        -0.3204   -7.5151    1.2474 Cl        1 <0>        -0.0564
     17 Cl3         2.6097   -7.2276    1.2169 Cl        1 <0>        -0.0895
     18 N2          0.9669   -5.7881   -0.9138 N.pl3     1 <0>        -0.6934
     19 C12         0.0866   -5.3671   -1.8434 C.2       1 <0>         0.5521
     20 S1         -1.0792   -4.1792   -1.4424 S.2       1 <0>        -0.5390
     21 N3          0.1241   -5.8811   -3.0887 N.pl3     1 <0>        -0.6263
     22 C13        -0.8398   -5.5040   -4.0307 C.ar      1 <0>         0.1294
     23 C14        -1.1540   -4.1629   -4.2061 C.ar      1 <0>        -0.0541
     24 C15        -2.1057   -3.7938   -5.1365 C.ar      1 <0>        -0.1077
     25 C16        -2.7460   -4.7580   -5.8935 C.ar      1 <0>        -0.0958
     26 C17        -2.4364   -6.0945   -5.7216 C.ar      1 <0>        -0.1091
     27 C18        -1.4805   -6.4704   -4.7966 C.ar      1 <0>        -0.0378
     28 Cl4        -1.0865   -8.1480   -4.5866 Cl        1 <0>        -0.0655
     29 H2         -2.2897    0.9804    1.8607 H         1 <0>         0.1181
     30 H3         -1.4564   -1.0435    2.9832 H         1 <0>         0.1184
     31 H4          0.8333   -1.8352    2.5625 H         1 <0>         0.1108
     32 H5          1.4546    1.4585   -0.1204 H         1 <0>         0.1190
     33 H6         -0.8387    2.2304    0.3170 H         1 <0>         0.1195
     34 H7          3.4807    0.0025    0.8666 H         1 <0>         0.1381
     35 H8          3.9346   -2.3899    0.7948 H         1 <0>         0.1334
     36 H9          2.9407   -4.6260    0.7330 H         1 <0>         0.4023
     37 H10         1.6275   -6.4611   -1.1410 H         1 <0>         0.3997
     38 H11         0.8191   -6.5125   -3.3321 H         1 <0>         0.4077
     39 H12        -0.6548   -3.4090   -3.6153 H         1 <0>         0.1535
     40 H13        -2.3504   -2.7507   -5.2729 H         1 <0>         0.1363
     41 H14        -3.4897   -4.4663   -6.6202 H         1 <0>         0.1360
     42 H15        -2.9388   -6.8451   -6.3138 H         1 <0>         0.1387
@<TRIPOS>BOND
     1    1    6 ar
     2    1    2 ar
     3    1   29 1
     4    2    3 ar
     5    2   30 1
     6    3    4 ar
     7    3   31 1
     8    4    5 ar
     9    4    7 1
    10    5    6 ar
    11    5   32 1
    12    6   33 1
    13    7    8 2
    14    7   34 1
    15    8    9 1
    16    8   35 1
    17    9   10 2
    18    9   11 am
    19   11   12 1
    20   11   36 1
    21   12   13 1
    22   12   14 1
    23   12   18 1
    24   14   15 1
    25   14   16 1
    26   14   17 1
    27   18   19 1
    28   18   37 1
    29   19   20 2
    30   19   21 1
    31   21   22 1
    32   21   38 1
    33   22   27 ar
    34   22   23 ar
    35   23   24 ar
    36   23   39 1
    37   24   25 ar
    38   24   40 1
    39   25   26 ar
    40   25   41 1
    41   26   27 ar
    42   26   42 1
    43   27   28 1
@<TRIPOS>MOLECULE
ZINC38744223
   54    57     0     0     0
SMALL
USER_CHARGES

@<TRIPOS>ATOM
      1 C1         -0.0184    1.5028    0.0103 C.3       1 <0>        -0.1177
      2 C2          0.0021   -0.0041    0.0020 C.ar      1 <0>        -0.0851
      3 C3          0.0057   -0.6887   -1.1989 C.ar      1 <0>        -0.1191
      4 C4          0.0245   -2.0709   -1.2065 C.ar      1 <0>        -0.1087
      5 C5          0.0400   -2.7685   -0.0132 C.ar      1 <0>        -0.0914
      6 C6          0.0373   -2.0839    1.1877 C.ar      1 <0>        -0.1086
      7 C7          0.0229   -0.7016    1.1953 C.ar      1 <0>        -0.1190
      8 C8          0.0595   -4.2753   -0.0215 C.3       1 <0>        -0.0909
      9 C9          1.5084   -4.7666   -0.0322 C.3       1 <0>         0.1245
     10 N1          1.5273   -6.2315   -0.0403 N.am      1 <0>        -0.7271
     11 C10         2.7031   -6.8902   -0.0504 C.2       1 <0>         0.5603
     12 O1          3.7480   -6.2687   -0.0528 O.2       1 <0>        -0.5312
     13 C11         2.7221   -8.3664   -0.0585 C.ar      1 <0>        -0.1425
     14 C12         1.5220   -9.0822   -0.0615 C.ar      1 <0>        -0.0602
     15 C13         1.5434  -10.4589   -0.0696 C.ar      1 <0>        -0.1190
     16 C14         2.7578  -11.1372   -0.0747 C.ar      1 <0>         0.1900
     17 C15         3.9543  -10.4278   -0.0716 C.ar      1 <0>        -0.1557
     18 C16         3.9402   -9.0509   -0.0690 C.ar      1 <0>        -0.0295
     19 N2          2.7758  -12.5339   -0.0824 N.pl3     1 <0>        -0.3505
     20 C17         3.6916  -13.3198   -0.7156 C.2       1 <0>         0.3765
     21 C18         3.3571  -14.6156   -0.4783 C.2       1 <0>        -0.3213
     22 C19         2.2007  -14.6215    0.3252 C.2       1 <0>         0.1521
     23 N3          1.8594  -13.3727    0.5643 N.2       1 <0>        -0.2835
     24 C20         1.4925  -15.8272    0.8217 C.ar      1 <0>         0.0008
     25 C21         1.9681  -17.0979    0.5032 C.ar      1 <0>        -0.0745
     26 C22         1.3065  -18.2165    0.9670 C.ar      1 <0>        -0.0986
     27 C23         0.1715  -18.0786    1.7474 C.ar      1 <0>        -0.0239
     28 C24        -0.3059  -16.8180    2.0666 C.ar      1 <0>        -0.0330
     29 C25         0.3535  -15.6924    1.6125 C.ar      1 <0>        -0.0704
     30 Cl1        -1.7306  -16.6526    3.0448 Cl        1 <0>        -0.0428
     31 Cl2        -0.6566  -19.4899    2.3272 Cl        1 <0>        -0.0438
     32 N4          4.7734  -12.8758   -1.4696 N.pl3     1 <0>        -0.8518
     33 H1          1.0042    1.8801    0.0026 H         1 <0>         0.0716
     34 H2         -0.5455    1.8639   -0.8728 H         1 <0>         0.0669
     35 H3         -0.5286    1.8543    0.9071 H         1 <0>         0.0669
     36 H4         -0.0064   -0.1436   -2.1312 H         1 <0>         0.1227
     37 H5          0.0266   -2.6057   -2.1448 H         1 <0>         0.1223
     38 H6          0.0491   -2.6289    2.1200 H         1 <0>         0.1225
     39 H7          0.0245   -0.1667    2.1335 H         1 <0>         0.1228
     40 H8         -0.4447   -4.6501    0.8693 H         1 <0>         0.0804
     41 H9         -0.4546   -4.6404   -0.9106 H         1 <0>         0.0802
     42 H10         2.0126   -4.3918   -0.9230 H         1 <0>         0.0728
     43 H11         2.0224   -4.4015    0.8569 H         1 <0>         0.0728
     44 H12         0.6936   -6.7273   -0.0383 H         1 <0>         0.4007
     45 H13         0.5788   -8.5561   -0.0573 H         1 <0>         0.1368
     46 H14         0.6163  -11.0128   -0.0716 H         1 <0>         0.1433
     47 H15         4.8955  -10.9576   -0.0752 H         1 <0>         0.1378
     48 H16         4.8695   -8.5007   -0.0711 H         1 <0>         0.1489
     49 H17         3.8843  -15.4856   -0.8411 H         1 <0>         0.1569
     50 H18         2.8531  -17.2070   -0.1061 H         1 <0>         0.1460
     51 H19         1.6747  -19.2014    0.7204 H         1 <0>         0.1492
     52 H20        -0.0161  -14.7097    1.8659 H         1 <0>         0.1500
     53 H21         4.9287  -11.9249   -1.5818 H         1 <0>         0.4038
     54 H22         5.3722  -13.5172   -1.8831 H         1 <0>         0.4202
@<TRIPOS>BOND
     1    1    2 1
     2    1   33 1
     3    1   34 1
     4    1   35 1
     5    2    7 ar
     6    2    3 ar
     7    3    4 ar
     8    3   36 1
     9    4    5 ar
    10    4   37 1
    11    5    6 ar
    12    5    8 1
    13    6    7 ar
    14    6   38 1
    15    7   39 1
    16    8    9 1
    17    8   40 1
    18    8   41 1
    19    9   10 1
    20    9   42 1
    21    9   43 1
    22   10   11 am
    23   10   44 1
    24   11   12 2
    25   11   13 1
    26   13   18 ar
    27   13   14 ar
    28   14   15 ar
    29   14   45 1
    30   15   16 ar
    31   15   46 1
    32   16   17 ar
    33   16   19 1
    34   17   18 ar
    35   17   47 1
    36   18   48 1
    37   19   23 1
    38   19   20 1
    39   20   21 2
    40   20   32 1
    41   21   22 1
    42   21   49 1
    43   22   23 2
    44   22   24 1
    45   24   29 ar
    46   24   25 ar
    47   25   26 ar
    48   25   50 1
    49   26   27 ar
    50   26   51 1
    51   27   28 ar
    52   27   31 1
    53   28   29 ar
    54   28   30 1
    55   29   52 1
    56   32   53 1
    57   32   54 1
@<TRIPOS>MOLECULE
ZINC04953001
   63    67     0     0     0
SMALL
USER_CHARGES
2-(1-adamantyl)-N,N'-bis(p-tolyl)propanediamide
@<TRIPOS>ATOM
      1 C1          0.7804    3.4907   -1.3307 C.3       1 <0>        -0.1144
      2 C2          0.9365    2.0097   -1.1001 C.ar      1 <0>        -0.1001
      3 C3          1.4203    1.2011   -2.1122 C.ar      1 <0>        -0.1010
      4 C4          1.5645   -0.1566   -1.9040 C.ar      1 <0>        -0.1143
      5 C5          1.2231   -0.7095   -0.6767 C.ar      1 <0>         0.1414
      6 C6          0.7376    0.1052    0.3377 C.ar      1 <0>        -0.1415
      7 C7          0.5956    1.4622    0.1231 C.ar      1 <0>        -0.1017
      8 N1          1.3677   -2.0848   -0.4627 N.am      1 <0>        -0.6745
      9 C8          2.3815   -2.7546   -1.0458 C.2       1 <0>         0.5236
     10 O1          3.2007   -2.1562   -1.7105 O.2       1 <0>        -0.4695
     11 C9          2.4973   -4.2470   -0.8717 C.3       1 <0>        -0.1216
     12 C10         3.9407   -4.6582   -1.0085 C.2       1 <0>         0.5234
     13 O2          4.7528   -3.8794   -1.4612 O.2       1 <0>        -0.4723
     14 N2          4.3290   -5.8914   -0.6279 N.am      1 <0>        -0.6768
     15 C11         5.6856   -6.2337   -0.6438 C.ar      1 <0>         0.1400
     16 C12         6.6460   -5.2876   -0.3104 C.ar      1 <0>        -0.1136
     17 C13         7.9839   -5.6302   -0.3219 C.ar      1 <0>        -0.1008
     18 C14         8.3683   -6.9105   -0.6756 C.ar      1 <0>        -0.0989
     19 C15         7.4148   -7.8535   -1.0132 C.ar      1 <0>        -0.1018
     20 C16         6.0749   -7.5187   -0.9985 C.ar      1 <0>        -0.1393
     21 C17         9.8294   -7.2792   -0.6927 C.3       1 <0>        -0.1145
     22 C18         1.6625   -4.9517   -1.9429 C.3       1 <0>        -0.0336
     23 C19         1.7228   -6.4646   -1.7230 C.3       1 <0>        -0.1183
     24 C20         0.8880   -7.1693   -2.7942 C.3       1 <0>        -0.0810
     25 C21         1.4454   -6.8325   -4.1787 C.3       1 <0>        -0.1102
     26 C22         1.3851   -5.3195   -4.3985 C.3       1 <0>        -0.0846
     27 C23         2.2199   -4.6149   -3.3273 C.3       1 <0>        -0.1049
     28 C24        -0.0674   -4.8481   -4.3050 C.3       1 <0>        -0.1099
     29 C25        -0.6249   -5.1849   -2.9206 C.3       1 <0>        -0.0821
     30 C26        -0.5646   -6.6978   -2.7008 C.3       1 <0>        -0.1093
     31 C27         0.2100   -4.4802   -1.8494 C.3       1 <0>        -0.1109
     32 H1         -0.2163    3.6944   -1.7222 H         1 <0>         0.0700
     33 H2          0.9161    4.0215   -0.3883 H         1 <0>         0.0659
     34 H3          1.5285    3.8276   -2.0483 H         1 <0>         0.0662
     35 H4          1.6898    1.6324   -3.0649 H         1 <0>         0.1249
     36 H5          1.9421   -0.7877   -2.6949 H         1 <0>         0.1335
     37 H6          0.4708   -0.3218    1.2931 H         1 <0>         0.1245
     38 H7          0.2184    2.0964    0.9117 H         1 <0>         0.1257
     39 H8          0.7382   -2.5560    0.1052 H         1 <0>         0.4083
     40 H9          2.1319   -4.5270    0.1163 H         1 <0>         0.1155
     41 H10         3.6680   -6.5416   -0.3429 H         1 <0>         0.4096
     42 H11         6.3467   -4.2861   -0.0387 H         1 <0>         0.1300
     43 H12         8.7310   -4.8960   -0.0588 H         1 <0>         0.1252
     44 H13         7.7182   -8.8526   -1.2890 H         1 <0>         0.1260
     45 H14         5.3307   -8.2556   -1.2623 H         1 <0>         0.1247
     46 H15        10.2433   -7.0782   -1.6808 H         1 <0>         0.0703
     47 H16        10.3622   -6.6875    0.0517 H         1 <0>         0.0663
     48 H17         9.9395   -8.3387   -0.4614 H         1 <0>         0.0662
     49 H18         2.7576   -6.8005   -1.7896 H         1 <0>         0.0718
     50 H19         1.3257   -6.7045   -0.7367 H         1 <0>         0.0707
     51 H20         0.9309   -8.2471   -2.6376 H         1 <0>         0.0747
     52 H21         0.8507   -7.3345   -4.9418 H         1 <0>         0.0649
     53 H22         2.4802   -7.1683   -4.2452 H         1 <0>         0.0619
     54 H23         1.7822   -5.0796   -5.3848 H         1 <0>         0.0723
     55 H24         2.1770   -3.5370   -3.4839 H         1 <0>         0.0699
     56 H25         3.2548   -4.9507   -3.3939 H         1 <0>         0.0658
     57 H26        -0.1104   -3.7703   -4.4617 H         1 <0>         0.0618
     58 H27        -0.6622   -5.3501   -5.0682 H         1 <0>         0.0645
     59 H28        -1.6597   -4.8490   -2.8540 H         1 <0>         0.0739
     60 H29        -1.1593   -7.1998   -3.4639 H         1 <0>         0.0651
     61 H30        -0.9617   -6.9378   -1.7144 H         1 <0>         0.0637
     62 H31        -0.1872   -4.7202   -0.8631 H         1 <0>         0.0681
     63 H32         0.1670   -3.4024   -2.0060 H         1 <0>         0.0708
@<TRIPOS>BOND
     1    1    2 1
     2    1   32 1
     3    1   33 1
     4    1   34 1
     5    2    7 ar
     6    2    3 ar
     7    3    4 ar
     8    3   35 1
     9    4    5 ar
    10    4   36 1
    11    5    6 ar
    12    5    8 1
    13    6    7 ar
    14    6   37 1
    15    7   38 1
    16    8    9 am
    17    8   39 1
    18    9   10 2
    19    9   11 1
    20   11   12 1
    21   11   22 1
    22   11   40 1
    23   12   13 2
    24   12   14 am
    25   14   15 1
    26   14   41 1
    27   15   20 ar
    28   15   16 ar
    29   16   17 ar
    30   16   42 1
    31   17   18 ar
    32   17   43 1
    33   18   19 ar
    34   18   21 1
    35   19   20 ar
    36   19   44 1
    37   20   45 1
    38   21   46 1
    39   21   47 1
    40   21   48 1
    41   22   27 1
    42   22   31 1
    43   22   23 1
    44   23   24 1
    45   23   49 1
    46   23   50 1
    47   24   30 1
    48   24   25 1
    49   24   51 1
    50   25   26 1
    51   25   52 1
    52   25   53 1
    53   26   27 1
    54   26   28 1
    55   26   54 1
    56   27   55 1
    57   27   56 1
    58   28   29 1
    59   28   57 1
    60   28   58 1
    61   29   30 1
    62   29   31 1
    63   29   59 1
    64   30   60 1
    65   30   61 1
    66   31   62 1
    67   31   63 1
@<TRIPOS>MOLECULE
ZINC13041967
   55    58     0     0     0
SMALL
USER_CHARGES
N-[3-[(Z)-[2-[(2,5-dimethylphenyl)amino]-4-oxo-thiazol-5-ylidene]methyl]phenyl]-4-methyl-benzamide
@<TRIPOS>ATOM
      1 C1          7.9623  -11.4344   -2.2231 C.3       1 <0>        -0.1232
      2 C2          7.3494  -10.0744   -2.0090 C.ar      1 <0>        -0.0528
      3 C3          6.1561   -9.7513   -2.6302 C.ar      1 <0>        -0.1284
      4 C4          5.5896   -8.5081   -2.4385 C.ar      1 <0>        -0.0498
      5 C5          6.2231   -7.5753   -1.6156 C.ar      1 <0>        -0.1476
      6 C6          7.4295   -7.9059   -0.9960 C.ar      1 <0>        -0.0802
      7 C7          7.9827   -9.1543   -1.1924 C.ar      1 <0>        -0.1286
      8 C8          5.6221   -6.2412   -1.4060 C.2       1 <0>         0.5625
      9 O1          4.5740   -5.9543   -1.9509 O.2       1 <0>        -0.5137
     10 N1          6.2362   -5.3429   -0.6109 N.am      1 <0>        -0.6712
     11 C9          5.7177   -4.0498   -0.4858 C.ar      1 <0>         0.1432
     12 C10         6.5783   -2.9665   -0.3446 C.ar      1 <0>        -0.1221
     13 C11         6.0726   -1.6856   -0.2205 C.ar      1 <0>        -0.0963
     14 C12         4.7103   -1.4710   -0.2424 C.ar      1 <0>        -0.1092
     15 C13         3.8343   -2.5539   -0.3781 C.ar      1 <0>        -0.0736
     16 C14         4.3473   -3.8489   -0.5030 C.ar      1 <0>        -0.0841
     17 C15         2.3813   -2.3306   -0.3952 C.2       1 <0>         0.0655
     18 C16         1.8631   -1.1990    0.1423 C.2       1 <0>        -0.2349
     19 C17         0.4722   -0.6838    0.1138 C.2       1 <0>         0.5457
     20 O2         -0.4266   -1.2866   -0.4502 O.2       1 <0>        -0.4531
     21 N2          0.2620    0.4583    0.7295 N.2       1 <0>        -0.6470
     22 C18         1.2279    1.1223    1.3446 C.2       1 <0>         0.4686
     23 S1          2.6641    0.0931    1.0843 S.3       1 <0>        -0.0260
     24 N3          1.1459    2.3129    2.0180 N.pl3     1 <0>        -0.5708
     25 C19        -0.0981    2.9188    2.2176 C.ar      1 <0>         0.1325
     26 C20        -1.2644    2.2377    1.8922 C.ar      1 <0>        -0.1387
     27 C21        -2.4917    2.8372    2.0951 C.ar      1 <0>        -0.0652
     28 C22        -2.5602    4.1183    2.6119 C.ar      1 <0>        -0.1269
     29 C23        -1.4012    4.8009    2.9320 C.ar      1 <0>        -0.0956
     30 C24        -0.1706    4.2051    2.7365 C.ar      1 <0>        -0.1156
     31 C25         1.0922    4.9500    3.0852 C.3       1 <0>        -0.1159
     32 C26        -3.7575    2.0970    1.7476 C.3       1 <0>        -0.1156
     33 H1          8.6295  -11.4007   -3.0843 H         1 <0>         0.0775
     34 H2          8.5276  -11.7218   -1.3365 H         1 <0>         0.0713
     35 H3          7.1731  -12.1643   -2.4032 H         1 <0>         0.0718
     36 H4          5.6672  -10.4737   -3.2670 H         1 <0>         0.1327
     37 H5          4.6583   -8.2570   -2.9243 H         1 <0>         0.1387
     38 H6          7.9269   -7.1872   -0.3617 H         1 <0>         0.1258
     39 H7          8.9139   -9.4129   -0.7104 H         1 <0>         0.1313
     40 H8          7.0378   -5.5930   -0.1253 H         1 <0>         0.4125
     41 H9          7.6463   -3.1265   -0.3316 H         1 <0>         0.1324
     42 H10         6.7472   -0.8493   -0.1109 H         1 <0>         0.1358
     43 H11         4.3196   -0.4684   -0.1504 H         1 <0>         0.1358
     44 H12         3.6775   -4.6891   -0.6122 H         1 <0>         0.1488
     45 H13         1.7267   -3.0679   -0.8360 H         1 <0>         0.1635
     46 H14         1.9509    2.7353    2.3562 H         1 <0>         0.4337
     47 H15        -1.2114    1.2389    1.4847 H         1 <0>         0.1794
     48 H16        -3.5212    4.5866    2.7655 H         1 <0>         0.1257
     49 H17        -1.4583    5.8012    3.3351 H         1 <0>         0.1299
     50 H18         1.4318    5.5155    2.2174 H         1 <0>         0.0755
     51 H19         0.8942    5.6344    3.9101 H         1 <0>         0.0774
     52 H20         1.8638    4.2390    3.3802 H         1 <0>         0.0576
     53 H21        -4.0272    2.3044    0.7121 H         1 <0>         0.0737
     54 H22        -3.5986    1.0261    1.8742 H         1 <0>         0.0695
     55 H23        -4.5624    2.4251    2.4054 H         1 <0>         0.0676
@<TRIPOS>BOND
     1    1    2 1
     2    1   33 1
     3    1   34 1
     4    1   35 1
     5    2    7 ar
     6    2    3 ar
     7    3    4 ar
     8    3   36 1
     9    4    5 ar
    10    4   37 1
    11    5    6 ar
    12    5    8 1
    13    6    7 ar
    14    6   38 1
    15    7   39 1
    16    8    9 2
    17    8   10 am
    18   10   11 1
    19   10   40 1
    20   11   16 ar
    21   11   12 ar
    22   12   13 ar
    23   12   41 1
    24   13   14 ar
    25   13   42 1
    26   14   15 ar
    27   14   43 1
    28   15   16 ar
    29   15   17 1
    30   16   44 1
    31   17   18 2
    32   17   45 1
    33   18   23 1
    34   18   19 1
    35   19   20 2
    36   19   21 1
    37   21   22 2
    38   22   23 1
    39   22   24 1
    40   24   25 1
    41   24   46 1
    42   25   30 ar
    43   25   26 ar
    44   26   27 ar
    45   26   47 1
    46   27   28 ar
    47   27   32 1
    48   28   29 ar
    49   28   48 1
    50   29   30 ar
    51   29   49 1
    52   30   31 1
    53   31   50 1
    54   31   51 1
    55   31   52 1
    56   32   53 1
    57   32   54 1
    58   32   55 1
@<TRIPOS>MOLECULE
ZINC20697912
   62    65     0     0     0
SMALL
USER_CHARGES
(3aR,4R,9bR)-N-tert-butyl-4-(4-isopropylphenyl)-3a,4,5,9b-tetrahydro-3H-cyclopenta[c]quinoline-8-sulfonamide
@<TRIPOS>ATOM
      1 C1         -7.0259    5.5915    1.9708 C.3       1 <0>        -0.1462
      2 C2         -5.6589    5.9411    2.5623 C.3       1 <0>        -0.0601
      3 C3         -5.7342    5.8839    4.0894 C.3       1 <0>        -0.1463
      4 C4         -4.6320    4.9527    2.0727 C.ar      1 <0>        -0.0685
      5 C5         -3.5408    5.3922    1.3468 C.ar      1 <0>        -0.1153
      6 C6         -2.5986    4.4857    0.8980 C.ar      1 <0>        -0.1006
      7 C7         -2.7475    3.1397    1.1756 C.ar      1 <0>        -0.1056
      8 C8         -3.8414    2.6996    1.8971 C.ar      1 <0>        -0.1033
      9 C9         -4.7815    3.6066    2.3491 C.ar      1 <0>        -0.1131
     10 C10        -1.7203    2.1514    0.6864 C.3       1 <0>         0.1985
     11 H1         -1.1604    2.6300   -0.1306 H         1 <0>         0.0793
     12 C11        -0.8230    1.7175    1.8318 C.3       1 <0>        -0.0829
     13 H2         -1.5260    1.3612    2.5991 H         1 <0>         0.1031
     14 C12         0.1275    2.7811    2.3873 C.3       1 <0>        -0.0834
     15 C13         1.2702    1.9065    2.9069 C.2       1 <0>        -0.1678
     16 C14         1.3163    0.7679    2.2257 C.2       1 <0>        -0.1655
     17 C15         0.2532    0.7925    1.1889 C.3       1 <0>        -0.0185
     18 H3          0.7791    1.0464    0.2567 H         1 <0>         0.0989
     19 C16        -0.4216   -0.4400    0.7285 C.ar      1 <0>        -0.1713
     20 C17         0.1909   -1.6742    0.7569 C.ar      1 <0>         0.0291
     21 C18        -0.4681   -2.7914    0.2783 C.ar      1 <0>        -0.7357
     22 C19        -1.7484   -2.6731   -0.2313 C.ar      1 <0>         0.0274
     23 C20        -2.3738   -1.4436   -0.2559 C.ar      1 <0>        -0.2179
     24 C21        -1.7230   -0.3155    0.2293 C.ar      1 <0>         0.2781
     25 N1         -2.3841    0.9185    0.2100 N.pl3     1 <0>        -0.7429
     26 S1          0.3227   -4.3655    0.3180 S.o2      1 <0>         2.6961
     27 O1         -0.4422   -5.2254   -0.5155 O.2       1 <0>        -0.9605
     28 O2          1.7074   -4.1299    0.1030 O.2       1 <0>        -0.9681
     29 N2          0.1757   -4.9485    1.8610 N.pl3     1 <0>        -1.1153
     30 C22        -1.1430   -5.3158    2.3828 C.3       1 <0>         0.1792
     31 C23        -1.6794   -6.5222    1.6097 C.3       1 <0>        -0.1857
     32 C24        -1.0234   -5.6725    3.8658 C.3       1 <0>        -0.1504
     33 C25        -2.1034   -4.1362    2.2178 C.3       1 <0>        -0.1982
     34 H4         -6.9717    5.6326    0.8729 H         1 <0>         0.0564
     35 H5         -7.7754    6.3129    2.3282 H         1 <0>         0.0604
     36 H6         -7.3133    4.5776    2.2860 H         1 <0>         0.0572
     37 H7         -5.3588    6.9491    2.2401 H         1 <0>         0.0787
     38 H8         -4.7513    6.1353    4.5146 H         1 <0>         0.0567
     39 H9         -6.0217    4.8700    4.4046 H         1 <0>         0.0572
     40 H10        -6.4837    6.6053    4.4468 H         1 <0>         0.0604
     41 H11        -3.4242    6.4439    1.1305 H         1 <0>         0.1236
     42 H12        -1.7461    4.8290    0.3308 H         1 <0>         0.1230
     43 H13        -3.9599    1.6475    2.1102 H         1 <0>         0.1214
     44 H14        -5.6343    3.2632    2.9160 H         1 <0>         0.1218
     45 H15         0.4286    3.4625    1.5779 H         1 <0>         0.0812
     46 H16        -0.3827    3.3524    3.1768 H         1 <0>         0.0736
     47 H17         1.9962    2.0960    3.7113 H         1 <0>         0.1319
     48 H18         2.0661    0.0044    2.4806 H         1 <0>         0.1343
     49 H19         1.1906   -1.7690    1.1545 H         1 <0>         0.1306
     50 H20        -2.2599   -3.5453   -0.6109 H         1 <0>         0.1405
     51 H21        -3.3740   -1.3574   -0.6540 H         1 <0>         0.1278
     52 H22        -3.4161    0.9606   -0.1685 H         1 <0>         0.4236
     53 H23         1.0416   -4.9020    2.5378 H         1 <0>         0.4381
     54 H24        -2.6696   -6.7980    2.0015 H         1 <0>         0.0650
     55 H25        -0.9889   -7.3702    1.7283 H         1 <0>         0.0627
     56 H26        -1.7654   -6.2657    0.5435 H         1 <0>         0.0943
     57 H27        -2.0136   -5.9483    4.2576 H         1 <0>         0.0704
     58 H28        -0.6377   -4.8051    4.4216 H         1 <0>         0.0615
     59 H29        -0.3329   -6.5205    3.9844 H         1 <0>         0.0655
     60 H30        -3.0936   -4.4120    2.6096 H         1 <0>         0.0738
     61 H31        -2.1894   -3.8798    1.1516 H         1 <0>         0.0752
     62 H32        -1.7177   -3.2688    2.7736 H         1 <0>         0.0663
@<TRIPOS>BOND
     1    1    2 1
     2    1   34 1
     3    1   35 1
     4    1   36 1
     5    2    3 1
     6    2    4 1
     7    2   37 1
     8    3   38 1
     9    3   39 1
    10    3   40 1
    11    4    9 ar
    12    4    5 ar
    13    5    6 ar
    14    5   41 1
    15    6    7 ar
    16    6   42 1
    17    7    8 ar
    18    7   10 1
    19    8    9 ar
    20    8   43 1
    21    9   44 1
    22   10   11 1
    23   10   25 1
    24   10   12 1
    25   12   13 1
    26   12   17 1
    27   12   14 1
    28   14   15 1
    29   14   45 1
    30   14   46 1
    31   15   16 2
    32   15   47 1
    33   16   17 1
    34   16   48 1
    35   17   18 1
    36   17   19 1
    37   19   24 ar
    38   19   20 ar
    39   20   21 ar
    40   20   49 1
    41   21   22 ar
    42   21   26 1
    43   22   23 ar
    44   22   50 1
    45   23   24 ar
    46   23   51 1
    47   24   25 1
    48   25   52 1
    49   26   27 2
    50   26   28 2
    51   26   29 1
    52   29   30 1
    53   29   53 1
    54   30   31 1
    55   30   32 1
    56   30   33 1
    57   31   54 1
    58   31   55 1
    59   31   56 1
    60   32   57 1
    61   32   58 1
    62   32   59 1
    63   33   60 1
    64   33   61 1
    65   33   62 1
@<TRIPOS>MOLECULE
ZINC27520996
   47    49     0     0     0
SMALL
USER_CHARGES
N-[(Z)-2-(4-bromophenyl)-1-[(4-fluorophenyl)carbamoyl]vinyl]-4-methyl-benzamide
@<TRIPOS>ATOM
      1 C1         -5.3340   -5.4773   -2.5907 C.3       1 <0>        -0.1250
      2 C2         -4.2217   -4.4818   -2.3837 C.ar      1 <0>        -0.0540
      3 C3         -3.2588   -4.3115   -3.3627 C.ar      1 <0>        -0.1268
      4 C4         -2.2379   -3.4020   -3.1796 C.ar      1 <0>        -0.0504
      5 C5         -2.1776   -2.6526   -2.0034 C.ar      1 <0>        -0.1428
      6 C6         -3.1489   -2.8335   -1.0173 C.ar      1 <0>        -0.0818
      7 C7         -4.1680   -3.7420   -1.2158 C.ar      1 <0>        -0.1273
      8 C8         -1.0866   -1.6762   -1.8004 C.2       1 <0>         0.5655
      9 O1         -0.2946   -1.4548   -2.6959 O.2       1 <0>        -0.5030
     10 N1         -0.9698   -1.0315   -0.6227 N.am      1 <0>        -0.6793
     11 C9          0.1175   -0.1828   -0.3953 C.2       1 <0>         0.0981
     12 C10        -0.0928    1.1105   -0.0567 C.2       1 <0>        -0.0798
     13 C11        -1.4555    1.6635   -0.0761 C.ar      1 <0>        -0.0534
     14 C12        -2.4613    1.0287   -0.8126 C.ar      1 <0>        -0.1114
     15 C13        -3.7374    1.5499   -0.8218 C.ar      1 <0>        -0.0907
     16 C14        -4.0222    2.7057   -0.1134 C.ar      1 <0>        -0.0808
     17 C15        -3.0304    3.3427    0.6138 C.ar      1 <0>        -0.0920
     18 C16        -1.7509    2.8301    0.6371 C.ar      1 <0>        -0.0910
     19 Br1        -5.7741    3.4170   -0.1389 Br        1 <0>        -0.0442
     20 C17         1.4891   -0.6950   -0.5239 C.2       1 <0>         0.5526
     21 O2          1.6782   -1.8578   -0.8283 O.2       1 <0>        -0.4967
     22 N2          2.5373    0.1233   -0.3047 N.am      1 <0>        -0.6791
     23 C18         3.8410   -0.3368   -0.5205 C.ar      1 <0>         0.1416
     24 C19         4.1712   -1.6535   -0.2273 C.ar      1 <0>        -0.0920
     25 C20         5.4570   -2.1072   -0.4469 C.ar      1 <0>        -0.1340
     26 C21         6.4197   -1.2469   -0.9478 C.ar      1 <0>         0.0839
     27 C22         6.0942    0.0680   -1.2350 C.ar      1 <0>        -0.1341
     28 C23         4.8080    0.5242   -1.0227 C.ar      1 <0>        -0.1145
     29 F1          7.6783   -1.6914   -1.1570 F         1 <0>        -0.1392
     30 H1         -5.2117   -5.9657   -3.5687 H         1 <0>         0.0699
     31 H2         -6.3025   -4.9567   -2.5594 H         1 <0>         0.0758
     32 H3         -5.2997   -6.2361   -1.7951 H         1 <0>         0.0757
     33 H4         -3.3065   -4.8922   -4.2721 H         1 <0>         0.1317
     34 H5         -1.4872   -3.2697   -3.9447 H         1 <0>         0.1368
     35 H6         -3.1053   -2.2604   -0.1030 H         1 <0>         0.1238
     36 H7         -4.9231   -3.8792   -0.4559 H         1 <0>         0.1308
     37 H8         -1.7300   -1.1731    0.1596 H         1 <0>         0.4363
     38 H9          0.7554    1.7481    0.2330 H         1 <0>         0.1470
     39 H10        -2.2395    0.1302   -1.3693 H         1 <0>         0.1474
     40 H11        -4.5160    1.0585   -1.3863 H         1 <0>         0.1357
     41 H12        -3.2598    4.2435    1.1637 H         1 <0>         0.1374
     42 H13        -0.9785    3.3281    1.2043 H         1 <0>         0.1383
     43 H14         2.3679    1.1528    0.0438 H         1 <0>         0.4321
     44 H15         3.4218   -2.3235    0.1675 H         1 <0>         0.1461
     45 H16         5.7130   -3.1323   -0.2236 H         1 <0>         0.1390
     46 H17         6.8465    0.7372   -1.6256 H         1 <0>         0.1404
     47 H18         4.5544    1.5497   -1.2475 H         1 <0>         0.1370
@<TRIPOS>BOND
     1    1    2 1
     2    1   30 1
     3    1   31 1
     4    1   32 1
     5    2    7 ar
     6    2    3 ar
     7    3    4 ar
     8    3   33 1
     9    4    5 ar
    10    4   34 1
    11    5    6 ar
    12    5    8 1
    13    6    7 ar
    14    6   35 1
    15    7   36 1
    16    8    9 2
    17    8   10 am
    18   10   11 1
    19   10   37 1
    20   11   12 2
    21   11   20 1
    22   12   13 1
    23   12   38 1
    24   13   18 ar
    25   13   14 ar
    26   14   15 ar
    27   14   39 1
    28   15   16 ar
    29   15   40 1
    30   16   17 ar
    31   16   19 1
    32   17   18 ar
    33   17   41 1
    34   18   42 1
    35   20   21 2
    36   20   22 am
    37   22   23 1
    38   22   43 1
    39   23   28 ar
    40   23   24 ar
    41   24   25 ar
    42   24   44 1
    43   25   26 ar
    44   25   45 1
    45   26   27 ar
    46   26   29 1
    47   27   28 ar
    48   27   46 1
    49   28   47 1
@<TRIPOS>MOLECULE
ZINC39583670
   50    54     0     0     0
SMALL
USER_CHARGES

@<TRIPOS>ATOM
      1 C1         -0.0071    1.5002    0.0283 C.3       1 <0>        -0.1159
      2 C2          0.0312   -0.0063    0.0176 C.ar      1 <0>        -0.0855
      3 C3          0.0687   -0.6882   -1.1845 C.ar      1 <0>        -0.1147
      4 C4          0.1038   -2.0699   -1.1944 C.ar      1 <0>        -0.1133
      5 C5          0.1018   -2.7700   -0.0022 C.ar      1 <0>        -0.1133
      6 C6          0.0652   -2.0882    1.1995 C.ar      1 <0>        -0.1183
      7 C7          0.0344   -0.7060    1.2095 C.ar      1 <0>        -0.0973
      8 C8          0.0626   -2.8513    2.4990 C.3       1 <0>         0.4161
      9 H1          1.0806   -3.1056    2.7941 H         1 <0>         0.0867
     10 N1         -0.6021   -2.0697    3.5561 N.pl3     1 <0>        -0.6522
     11 N2         -1.7054   -2.8278    3.9665 N.2       1 <0>        -0.2888
     12 C9         -1.7884   -3.9356    3.3103 C.2       1 <0>         0.2703
     13 N3         -0.7606   -4.0670    2.3827 N.pl3     1 <0>        -0.5811
     14 C10        -0.5492   -5.1391    1.5109 C.ar      1 <0>         0.1775
     15 C11         0.5898   -5.9243    1.6368 C.ar      1 <0>        -0.1097
     16 C12         0.7960   -6.9828    0.7741 C.ar      1 <0>        -0.0930
     17 C13        -0.1308   -7.2616   -0.2151 C.ar      1 <0>        -0.0353
     18 C14        -1.2662   -6.4808   -0.3431 C.ar      1 <0>        -0.0940
     19 C15        -1.4806   -5.4249    0.5206 C.ar      1 <0>        -0.1074
     20 Cl1         0.1317   -8.5930   -1.2977 Cl        1 <0>        -0.0617
     21 S1         -3.0508   -5.1390    3.5604 S.3       1 <0>         0.0234
     22 C16        -4.0820   -4.4271    4.8721 C.3       1 <0>        -0.0324
     23 C17        -5.2154   -5.3691    5.1870 C.2       1 <0>         0.2878
     24 N4         -5.1720   -6.3154    6.0789 N.2       1 <0>        -0.4634
     25 C18        -6.3599   -6.9727    6.1053 C.ar      1 <0>         0.0445
     26 C19        -6.8512   -8.0452    6.8536 C.ar      1 <0>        -0.0585
     27 C20        -8.1253   -8.4932    6.6460 C.ar      1 <0>        -0.1269
     28 C21        -8.9406   -7.8934    5.6971 C.ar      1 <0>        -0.0937
     29 C22        -8.4766   -6.8337    4.9466 C.ar      1 <0>        -0.1137
     30 C23        -7.1853   -6.3647    5.1440 C.ar      1 <0>         0.0566
     31 N5         -6.4348   -5.3501    4.5843 N.pl3     1 <0>        -0.5899
     32 H2          1.0110    1.8894    0.0434 H         1 <0>         0.0719
     33 H3         -0.5193    1.8571   -0.8652 H         1 <0>         0.0674
     34 H4         -0.5405    1.8438    0.9146 H         1 <0>         0.0660
     35 H5          0.0703   -0.1413   -2.1158 H         1 <0>         0.1227
     36 H6          0.1324   -2.6026   -2.1334 H         1 <0>         0.1235
     37 H7          0.1285   -3.8496   -0.0099 H         1 <0>         0.1273
     38 H8          0.0096   -0.1732    2.1486 H         1 <0>         0.1186
     39 H9         -0.3300   -1.2041    3.8990 H         1 <0>         0.4469
     40 H10         1.3136   -5.7070    2.4083 H         1 <0>         0.1369
     41 H11         1.6815   -7.5934    0.8713 H         1 <0>         0.1415
     42 H12        -1.9874   -6.7003   -1.1165 H         1 <0>         0.1409
     43 H13        -2.3694   -4.8191    0.4236 H         1 <0>         0.1367
     44 H14        -3.4779   -4.2737    5.7663 H         1 <0>         0.1325
     45 H15        -4.4861   -3.4714    4.5382 H         1 <0>         0.1161
     46 H16        -6.7227   -4.7387    3.8884 H         1 <0>         0.4253
     47 H17        -6.2250   -8.5197    7.5946 H         1 <0>         0.1321
     48 H18        -8.5014   -9.3228    7.2262 H         1 <0>         0.1323
     49 H19        -9.9453   -8.2592    5.5450 H         1 <0>         0.1329
     50 H20        -9.1151   -6.3708    4.2087 H         1 <0>         0.1254
@<TRIPOS>BOND
     1    1    2 1
     2    1   32 1
     3    1   33 1
     4    1   34 1
     5    2    7 ar
     6    2    3 ar
     7    3    4 ar
     8    3   35 1
     9    4    5 ar
    10    4   36 1
    11    5    6 ar
    12    5   37 1
    13    6    7 ar
    14    6    8 1
    15    7   38 1
    16    8    9 1
    17    8   13 1
    18    8   10 1
    19   10   11 1
    20   10   39 1
    21   11   12 2
    22   12   13 1
    23   12   21 1
    24   13   14 1
    25   14   19 ar
    26   14   15 ar
    27   15   16 ar
    28   15   40 1
    29   16   17 ar
    30   16   41 1
    31   17   18 ar
    32   17   20 1
    33   18   19 ar
    34   18   42 1
    35   19   43 1
    36   21   22 1
    37   22   44 1
    38   22   45 1
    39   22   23 1
    40   23   24 2
    41   23   31 1
    42   24   25 1
    43   25   26 ar
    44   25   30 ar
    45   26   27 ar
    46   26   47 1
    47   27   28 ar
    48   27   48 1
    49   28   29 ar
    50   28   49 1
    51   29   30 ar
    52   29   50 1
    53   30   31 1
    54   31   46 1
@<TRIPOS>MOLECULE
ZINC02531515
   47    49     0     0     0
SMALL
USER_CHARGES
[4-bromo-2-[(4-fluorophenyl)thiocarbamoylaminoiminomethyl]phenyl] 3-methylbenzoate
@<TRIPOS>ATOM
      1 C1          1.9902    1.2043    4.0841 C.3       1 <0>        -0.1184
      2 C2          1.7592    1.8939    2.7641 C.ar      1 <0>        -0.0938
      3 C3          1.6518    1.1466    1.6043 C.ar      1 <0>        -0.0780
      4 C4          1.4337    1.7711    0.3892 C.ar      1 <0>        -0.1259
      5 C5          1.3273    3.1451    0.3255 C.ar      1 <0>        -0.0682
      6 C6          1.4403    3.9056    1.4909 C.ar      1 <0>        -0.1278
      7 C7          1.6605    3.2687    2.7141 C.ar      1 <0>        -0.0532
      8 C8          1.3270    5.3771    1.4304 C.2       1 <0>         0.5066
      9 O1          1.3344    6.0295    2.4552 O.2       1 <0>        -0.4765
     10 O2          1.2154    5.9957    0.2389 O.3       1 <0>        -0.2891
     11 C9          1.2206    7.3541    0.2464 C.ar      1 <0>         0.1350
     12 C10         0.0292    8.0535    0.3483 C.ar      1 <0>        -0.1119
     13 C11         0.0355    9.4354    0.3617 C.ar      1 <0>        -0.0507
     14 C12         1.2291   10.1314    0.2620 C.ar      1 <0>        -0.0940
     15 C13         2.4243    9.4501    0.1540 C.ar      1 <0>        -0.0300
     16 C14         2.4309    8.0535    0.1452 C.ar      1 <0>        -0.0624
     17 C15         3.7037    7.3193    0.0306 C.2       1 <0>         0.1558
     18 N1          4.8120    7.9675   -0.1600 N.2       1 <0>        -0.2574
     19 N2          6.0059    7.2661   -0.3735 N.pl3     1 <0>        -0.5131
     20 C16         7.1720    7.9347   -0.4708 C.2       1 <0>         0.5939
     21 S1          8.6120    7.0926   -0.8556 S.2       1 <0>        -0.5015
     22 N3          7.2045    9.2663   -0.2653 N.pl3     1 <0>        -0.6771
     23 C17         6.6569   10.1349   -1.2166 C.ar      1 <0>         0.1895
     24 C18         5.9959    9.6239   -2.3258 C.ar      1 <0>        -0.1338
     25 C19         5.4504   10.4828   -3.2598 C.ar      1 <0>        -0.1104
     26 C20         5.5736   11.8525   -3.0974 C.ar      1 <0>         0.0664
     27 C21         6.2377   12.3641   -1.9953 C.ar      1 <0>        -0.1100
     28 C22         6.7788   11.5088   -1.0555 C.ar      1 <0>        -0.1333
     29 F1          5.0446   12.6908   -4.0153 F         1 <0>        -0.1394
     30 Br1         1.2207   12.0223    0.2745 Br        1 <0>        -0.0250
     31 H1          3.0614    1.1098    4.2621 H         1 <0>         0.0759
     32 H2          1.5393    1.7911    4.8844 H         1 <0>         0.0713
     33 H3          1.5370    0.2133    4.0604 H         1 <0>         0.0726
     34 H4          1.7343    0.0707    1.6485 H         1 <0>         0.1333
     35 H5          1.3461    1.1815   -0.5115 H         1 <0>         0.1362
     36 H6          1.1573    3.6314   -0.6238 H         1 <0>         0.1399
     37 H7          1.7486    3.8510    3.6194 H         1 <0>         0.1389
     38 H8         -0.9058    7.5179    0.4220 H         1 <0>         0.1499
     39 H9         -0.8958    9.9759    0.4455 H         1 <0>         0.1502
     40 H10         3.3530    9.9960    0.0768 H         1 <0>         0.1533
     41 H11         3.7142    6.2419    0.1053 H         1 <0>         0.1292
     42 H12         5.9931    6.2993   -0.4512 H         1 <0>         0.4134
     43 H13         7.6074    9.6228    0.5419 H         1 <0>         0.4316
     44 H14         5.9041    8.5556   -2.4555 H         1 <0>         0.1210
     45 H15         4.9318   10.0858   -4.1199 H         1 <0>         0.1372
     46 H16         6.3323   13.4326   -1.8704 H         1 <0>         0.1416
     47 H17         7.2961   11.9082   -0.1957 H         1 <0>         0.1383
@<TRIPOS>BOND
     1    1    2 1
     2    1   31 1
     3    1   32 1
     4    1   33 1
     5    2    7 ar
     6    2    3 ar
     7    3    4 ar
     8    3   34 1
     9    4    5 ar
    10    4   35 1
    11    5    6 ar
    12    5   36 1
    13    6    7 ar
    14    6    8 1
    15    7   37 1
    16    8    9 2
    17    8   10 1
    18   10   11 1
    19   11   16 ar
    20   11   12 ar
    21   12   13 ar
    22   12   38 1
    23   13   14 ar
    24   13   39 1
    25   14   15 ar
    26   14   30 1
    27   15   16 ar
    28   15   40 1
    29   16   17 1
    30   17   18 2
    31   17   41 1
    32   18   19 1
    33   19   20 1
    34   19   42 1
    35   20   21 2
    36   20   22 1
    37   22   23 1
    38   22   43 1
    39   23   28 ar
    40   23   24 ar
    41   24   25 ar
    42   24   44 1
    43   25   26 ar
    44   25   45 1
    45   26   27 ar
    46   26   29 1
    47   27   28 ar
    48   27   46 1
    49   28   47 1
@<TRIPOS>MOLECULE
ZINC12541085
   68    72     0     0     0
SMALL
USER_CHARGES
(2R)-N-[4-(1-adamantyl)phenyl]-2-[(4-chlorophenyl)sulfonylamino]-4-methylsulfanyl-butanamide
@<TRIPOS>ATOM
      1 C1          3.9706    1.5345    0.9186 C.3       1 <0>        -0.1215
      2 S1          4.8529    0.2041    0.0571 S.3       1 <0>        -0.2534
      3 C2          3.9788    0.0505   -1.5250 C.3       1 <0>        -0.0921
      4 C3          4.5488   -1.1328   -2.3098 C.3       1 <0>        -0.1068
      5 C4          3.8895   -1.1951   -3.6890 C.3       1 <0>         0.1476
      6 H1          2.8062   -1.2270   -3.5727 H         1 <0>         0.1149
      7 C5          4.3537   -2.4331   -4.4122 C.2       1 <0>         0.5000
      8 O1          4.9388   -2.3339   -5.4699 O.2       1 <0>        -0.4898
      9 N1          4.1186   -3.6504   -3.8836 N.am      1 <0>        -0.6709
     10 C6          4.6439   -4.7929   -4.4973 C.ar      1 <0>         0.1401
     11 C7          3.9438   -5.9914   -4.4519 C.ar      1 <0>        -0.1410
     12 C8          4.4626   -7.1160   -5.0631 C.ar      1 <0>        -0.1008
     13 C9          5.6830   -7.0522   -5.7103 C.ar      1 <0>        -0.0808
     14 C10         6.3853   -5.8618   -5.7523 C.ar      1 <0>        -0.0946
     15 C11         5.8692   -4.7322   -5.1480 C.ar      1 <0>        -0.1162
     16 C12         6.2490   -8.2829   -6.3707 C.3       1 <0>        -0.0103
     17 C13         7.5989   -8.6263   -5.7376 C.3       1 <0>        -0.0975
     18 C14         8.1735   -9.8757   -6.4081 C.3       1 <0>        -0.0864
     19 C15         7.2079  -11.0470   -6.2170 C.3       1 <0>        -0.1087
     20 C16         5.8580  -10.7035   -6.8502 C.3       1 <0>        -0.0864
     21 C17         5.2833   -9.4541   -6.1796 C.3       1 <0>        -0.1035
     22 C18         6.0485  -10.4383   -8.3449 C.3       1 <0>        -0.1090
     23 C19         7.0142   -9.2670   -8.5360 C.3       1 <0>        -0.0866
     24 C20         8.3641   -9.6105   -7.9029 C.3       1 <0>        -0.1090
     25 C21         6.4395   -8.0176   -7.8655 C.3       1 <0>        -0.0987
     26 N2          4.2629   -0.0086   -4.4628 N.pl3     1 <0>        -1.0931
     27 S2          3.1671    0.6885   -5.4903 S.o2      1 <0>         2.6913
     28 O2          2.6141   -0.3637   -6.2690 O.2       1 <0>        -0.9373
     29 O3          3.8150    1.8098   -6.0752 O.2       1 <0>        -0.9442
     30 C22         1.8559    1.3247   -4.4999 C.ar      1 <0>        -0.6818
     31 C23         1.9689    2.5770   -3.9254 C.ar      1 <0>        -0.0043
     32 C24         0.9406    3.0767   -3.1488 C.ar      1 <0>        -0.1304
     33 C25        -0.2019    2.3232   -2.9461 C.ar      1 <0>         0.0187
     34 C26        -0.3141    1.0696   -3.5206 C.ar      1 <0>        -0.1293
     35 C27         0.7148    0.5711   -4.2974 C.ar      1 <0>        -0.0112
     36 Cl1        -1.4937    2.9499   -1.9704 Cl        1 <0>        -0.0490
     37 H2          4.4815    1.7631    1.8539 H         1 <0>         0.1045
     38 H3          3.9501    2.4240    0.2889 H         1 <0>         0.0777
     39 H4          2.9500    1.2158    1.1305 H         1 <0>         0.0773
     40 H5          4.1089    0.9658   -2.1023 H         1 <0>         0.0880
     41 H6          2.9175   -0.1142   -1.3392 H         1 <0>         0.0858
     42 H7          4.3483   -2.0578   -1.7691 H         1 <0>         0.0968
     43 H8          5.6251   -1.0064   -2.4269 H         1 <0>         0.0948
     44 H9          3.5852   -3.7344   -3.0778 H         1 <0>         0.4104
     45 H10         2.9926   -6.0428   -3.9431 H         1 <0>         0.1246
     46 H11         3.9166   -8.0473   -5.0320 H         1 <0>         0.1299
     47 H12         7.3381   -5.8152   -6.2586 H         1 <0>         0.1235
     48 H13         6.4182   -3.8027   -5.1812 H         1 <0>         0.1327
     49 H14         8.2868   -7.7919   -5.8737 H         1 <0>         0.0635
     50 H15         7.4631   -8.8153   -4.6727 H         1 <0>         0.0630
     51 H16         9.1352  -10.1204   -5.9571 H         1 <0>         0.0699
     52 H17         7.0721  -11.2360   -5.1522 H         1 <0>         0.0613
     53 H18         7.6173  -11.9371   -6.6947 H         1 <0>         0.0615
     54 H19         5.1700  -11.5380   -6.7141 H         1 <0>         0.0698
     55 H20         5.1476   -9.6431   -5.1148 H         1 <0>         0.0652
     56 H21         4.3217   -9.2095   -6.6307 H         1 <0>         0.0652
     57 H22         6.4579  -11.3284   -8.8226 H         1 <0>         0.0615
     58 H23         5.0869  -10.1936   -8.7960 H         1 <0>         0.0615
     59 H24         7.1499   -9.0780   -9.6009 H         1 <0>         0.0701
     60 H25         9.0520   -8.7760   -8.0390 H         1 <0>         0.0615
     61 H26         8.7735  -10.5006   -8.3806 H         1 <0>         0.0616
     62 H27         5.4779   -7.7729   -8.3165 H         1 <0>         0.0634
     63 H28         7.1275   -7.1832   -8.0016 H         1 <0>         0.0638
     64 H29         5.1520    0.3688   -4.3734 H         1 <0>         0.4280
     65 H30         2.8608    3.1651   -4.0837 H         1 <0>         0.1503
     66 H31         1.0307    4.0533   -2.6967 H         1 <0>         0.1462
     67 H32        -1.2055    0.4808   -3.3624 H         1 <0>         0.1469
     68 H33         0.6270   -0.4072   -4.7465 H         1 <0>         0.1521
@<TRIPOS>BOND
     1    1    2 1
     2    1   37 1
     3    1   38 1
     4    1   39 1
     5    2    3 1
     6    3    4 1
     7    3   40 1
     8    3   41 1
     9    4    5 1
    10    4   42 1
    11    4   43 1
    12    5    6 1
    13    5    7 1
    14    5   26 1
    15    7    8 2
    16    7    9 am
    17    9   10 1
    18    9   44 1
    19   10   15 ar
    20   10   11 ar
    21   11   12 ar
    22   11   45 1
    23   12   13 ar
    24   12   46 1
    25   13   14 ar
    26   13   16 1
    27   14   15 ar
    28   14   47 1
    29   15   48 1
    30   16   21 1
    31   16   25 1
    32   16   17 1
    33   17   18 1
    34   17   49 1
    35   17   50 1
    36   18   24 1
    37   18   19 1
    38   18   51 1
    39   19   20 1
    40   19   52 1
    41   19   53 1
    42   20   21 1
    43   20   22 1
    44   20   54 1
    45   21   55 1
    46   21   56 1
    47   22   23 1
    48   22   57 1
    49   22   58 1
    50   23   24 1
    51   23   25 1
    52   23   59 1
    53   24   60 1
    54   24   61 1
    55   25   62 1
    56   25   63 1
    57   26   27 1
    58   26   64 1
    59   27   28 2
    60   27   29 2
    61   27   30 1
    62   30   35 ar
    63   30   31 ar
    64   31   32 ar
    65   31   65 1
    66   32   33 ar
    67   32   66 1
    68   33   34 ar
    69   33   36 1
    70   34   35 ar
    71   34   67 1
    72   35   68 1
@<TRIPOS>MOLECULE
ZINC21245057
   67    71     0     0     0
SMALL
USER_CHARGES
(6R,9S)-6-(4-ethoxyphenyl)-9-(4-propoxyphenyl)-5,6,8,9,10,11-hexahydrobenzo[c][1,5]benzodiazepin-7-one
@<TRIPOS>ATOM
      1 C1          7.6437    5.9057   11.5785 C.3       1 <0>        -0.1524
      2 C2          6.1858    5.6075   11.2227 C.3       1 <0>        -0.1252
      3 C3          6.0929    5.2014    9.7505 C.3       1 <0>         0.0566
      4 O1          4.7313    4.9229    9.4182 O.3       1 <0>        -0.3159
      5 C4          4.4733    4.5453    8.1385 C.ar      1 <0>         0.1315
      6 C5          3.1735    4.2595    7.7470 C.ar      1 <0>        -0.1497
      7 C6          2.9138    3.8763    6.4454 C.ar      1 <0>        -0.0711
      8 C7          3.9481    3.7774    5.5332 C.ar      1 <0>        -0.1194
      9 C8          5.2453    4.0561    5.9223 C.ar      1 <0>        -0.0719
     10 C9          5.5094    4.4453    7.2213 C.ar      1 <0>        -0.2062
     11 C10         3.6620    3.3590    4.1140 C.3       1 <0>        -0.0297
     12 H1          2.5807    3.1735    4.0338 H         1 <0>         0.0870
     13 C11         4.0964    4.4627    3.1513 C.3       1 <0>        -0.1029
     14 C12         3.8302    4.0367    1.7175 C.2       1 <0>         0.2683
     15 C13         3.9044    2.7417    1.3646 C.2       1 <0>        -0.3026
     16 C14         3.6714    2.1863   -0.0198 C.3       1 <0>         0.2902
     17 H2          4.5485    1.5792   -0.2886 H         1 <0>         0.0904
     18 N1          3.6033    3.1848   -1.0654 N.pl3     1 <0>        -0.7824
     19 C15         2.5775    4.1276   -1.0920 C.ar      1 <0>         0.1740
     20 C16         1.6103    4.1156   -2.0840 C.ar      1 <0>        -0.1254
     21 C17         0.5472    4.9987   -2.0074 C.ar      1 <0>        -0.1091
     22 C18         0.4493    5.8865   -0.9515 C.ar      1 <0>        -0.1250
     23 C19         1.4261    5.9159    0.0293 C.ar      1 <0>        -0.1168
     24 C20         2.4992    5.0459   -0.0558 C.ar      1 <0>         0.1144
     25 N2          3.5384    5.0536    0.8670 N.pl3     1 <0>        -0.6989
     26 C21         2.3774    1.4139   -0.0126 C.ar      1 <0>        -0.1176
     27 C22         2.3839    0.0542   -0.2635 C.ar      1 <0>        -0.0506
     28 C23         1.1990   -0.6559   -0.2584 C.ar      1 <0>        -0.1569
     29 C24         0.0019   -0.0038   -0.0007 C.ar      1 <0>         0.1291
     30 C25        -0.0019    1.3604    0.2512 C.ar      1 <0>        -0.2118
     31 C26         1.1857    2.0661    0.2449 C.ar      1 <0>        -0.0630
     32 O2         -1.1651   -0.7001    0.0045 O.3       1 <0>        -0.3177
     33 C27        -2.3589    0.0364    0.2774 C.3       1 <0>         0.0542
     34 C28        -3.5612   -0.9091    0.2406 C.3       1 <0>        -0.1546
     35 C29         4.2225    1.7579    2.3304 C.2       1 <0>         0.4002
     36 O3          4.3025    0.5966    1.9806 O.2       1 <0>        -0.4709
     37 C30         4.4645    2.0982    3.7705 C.3       1 <0>        -0.1600
     38 H3          7.7105    6.1977   12.6369 H         1 <0>         0.0665
     39 H4          8.0145    6.7269   10.9475 H         1 <0>         0.0582
     40 H5          8.2542    5.0069   11.4068 H         1 <0>         0.0585
     41 H6          5.8150    4.7863   11.8537 H         1 <0>         0.0747
     42 H7          5.5752    6.5062   11.3944 H         1 <0>         0.0744
     43 H8          6.4637    6.0226    9.1195 H         1 <0>         0.0629
     44 H9          6.7034    4.3026    9.5788 H         1 <0>         0.0633
     45 H10         2.3651    4.3370    8.4590 H         1 <0>         0.1312
     46 H11         1.9020    3.6541    6.1400 H         1 <0>         0.1290
     47 H12         6.0521    3.9735    5.2092 H         1 <0>         0.1245
     48 H13         6.5222    4.6672    7.5236 H         1 <0>         0.1277
     49 H14         3.5304    5.3809    3.3668 H         1 <0>         0.0897
     50 H15         5.1718    4.6568    3.2772 H         1 <0>         0.0914
     51 H16         4.3687    3.2073   -1.8552 H         1 <0>         0.4152
     52 H17         1.6854    3.4236   -2.9098 H         1 <0>         0.1233
     53 H18        -0.2106    4.9942   -2.7769 H         1 <0>         0.1219
     54 H19        -0.3930    6.5598   -0.8917 H         1 <0>         0.1239
     55 H20         1.3512    6.6104    0.8529 H         1 <0>         0.1245
     56 H21         4.1460    5.9705    0.8770 H         1 <0>         0.4253
     57 H22         3.3161   -0.4530   -0.4640 H         1 <0>         0.1272
     58 H23         1.2050   -1.7187   -0.4504 H         1 <0>         0.1274
     59 H24        -0.9324    1.8703    0.4524 H         1 <0>         0.1214
     60 H25         1.1833    3.1281    0.4410 H         1 <0>         0.1180
     61 H26        -2.2855    0.4977    1.2733 H         1 <0>         0.0604
     62 H27        -2.4868    0.8219   -0.4820 H         1 <0>         0.0609
     63 H28        -4.4801   -0.3421    0.4507 H         1 <0>         0.0789
     64 H29        -3.4333   -1.6946    1.0000 H         1 <0>         0.0670
     65 H30        -3.6345   -1.3704   -0.7553 H         1 <0>         0.0670
     66 H31         5.5351    2.2885    3.9365 H         1 <0>         0.1007
     67 H32         4.1357    1.2679    4.4128 H         1 <0>         0.0969
@<TRIPOS>BOND
     1    1    2 1
     2    1   38 1
     3    1   39 1
     4    1   40 1
     5    2    3 1
     6    2   41 1
     7    2   42 1
     8    3    4 1
     9    3   43 1
    10    3   44 1
    11    4    5 1
    12    5   10 ar
    13    5    6 ar
    14    6    7 ar
    15    6   45 1
    16    7    8 ar
    17    7   46 1
    18    8    9 ar
    19    8   11 1
    20    9   10 ar
    21    9   47 1
    22   10   48 1
    23   11   12 1
    24   11   37 1
    25   11   13 1
    26   13   14 1
    27   13   49 1
    28   13   50 1
    29   14   25 1
    30   14   15 2
    31   15   16 1
    32   15   35 1
    33   16   17 1
    34   16   18 1
    35   16   26 1
    36   18   19 1
    37   18   51 1
    38   19   24 ar
    39   19   20 ar
    40   20   21 ar
    41   20   52 1
    42   21   22 ar
    43   21   53 1
    44   22   23 ar
    45   22   54 1
    46   23   24 ar
    47   23   55 1
    48   24   25 1
    49   25   56 1
    50   26   31 ar
    51   26   27 ar
    52   27   28 ar
    53   27   57 1
    54   28   29 ar
    55   28   58 1
    56   29   30 ar
    57   29   32 1
    58   30   31 ar
    59   30   59 1
    60   31   60 1
    61   32   33 1
    62   33   34 1
    63   33   61 1
    64   33   62 1
    65   34   63 1
    66   34   64 1
    67   34   65 1
    68   35   36 2
    69   35   37 1
    70   37   66 1
    71   37   67 1
@<TRIPOS>MOLECULE
ZINC14461727
   75    79     0     0     0
SMALL
NO_CHARGES

@<TRIPOS>ATOM
      1 C1          0.8678   -0.1910   -1.2327 C.3       1 <0>        -0.1685
      2 C2         -0.0445   -0.0781   -0.0096 C.3       1 <0>        -0.0127
      3 N1          0.6666   -0.5684    1.1786 N.4       1 <0>        -0.2688
      4 C3         -0.1542   -0.3303    2.3735 C.3       1 <0>        -0.0106
      5 C4          0.6374   -0.7227    3.6225 C.3       1 <0>        -0.1648
      6 C5          0.9080   -1.9389    1.0447 C.ar      1 <0>        -0.2577
      7 C6         -0.1503   -2.8160    0.8975 C.ar      1 <0>        -0.1486
      8 C7          0.0884   -4.1711    0.7651 C.ar      1 <0>        -0.0782
      9 C8          1.3854   -4.6491    0.7795 C.ar      1 <0>        -0.2836
     10 C9          2.4437   -3.7719    0.9258 C.ar      1 <0>        -0.0586
     11 C10         2.2052   -2.4164    1.0539 C.ar      1 <0>        -0.1574
     12 C11         1.6456   -6.1266    0.6361 C.3       1 <0>         0.2304
     13 H1          0.7311   -6.6628    0.8897 H         1 <0>         0.0675
     14 C12         1.9816   -6.4125   -0.7971 C.3       1 <0>        -0.0822
     15 H2          1.3600   -5.7887   -1.4395 H         1 <0>         0.0898
     16 C13         1.7555   -7.8929   -1.1671 C.3       1 <0>        -0.1008
     17 C14         2.7403   -8.1384   -2.2911 C.2       1 <0>        -0.1624
     18 C15         3.6619   -7.2113   -2.3156 C.2       1 <0>        -0.1629
     19 C16         3.4444   -6.2286   -1.1920 C.3       1 <0>        -0.0009
     20 H3          3.6143   -5.2148   -1.5548 H         1 <0>         0.0824
     21 C17         4.4025   -6.5687   -0.0853 C.ar      1 <0>        -0.1635
     22 C18         5.7427   -6.7370   -0.4037 C.ar      1 <0>         0.0316
     23 C19         6.6593   -7.0611    0.5761 C.ar      1 <0>        -0.7384
     24 C20         6.2471   -7.2223    1.8865 C.ar      1 <0>         0.0226
     25 C21         4.9175   -7.0529    2.2131 C.ar      1 <0>        -0.2234
     26 C22         3.9924   -6.7203    1.2268 C.ar      1 <0>         0.2876
     27 N2          2.6756   -6.5044    1.5812 N.pl3     1 <0>        -0.7075
     28 S1          8.3577   -7.2707    0.1565 S.o2      1 <0>         2.6914
     29 O1          8.9230   -8.1066    1.1570 O.2       1 <0>        -0.9632
     30 O2          8.3969   -7.6022   -1.2247 O.2       1 <0>        -0.9631
     31 N3          9.0859   -5.7912    0.3090 N.pl3     1 <0>        -0.9982
     32 C23         9.6760   -5.3938    1.5897 C.3       1 <0>         0.0925
     33 C24         9.1400   -4.8799   -0.8367 C.3       1 <0>         0.1489
     34 C25         8.4191   -3.5766   -0.4862 C.3       1 <0>        -0.1293
     35 C26         8.4756   -2.6248   -1.6828 C.3       1 <0>        -0.1179
     36 C27         9.9358   -2.3235   -2.0263 C.3       1 <0>        -0.1214
     37 C28        10.6566   -3.6267   -2.3768 C.3       1 <0>        -0.1193
     38 C29        10.6001   -4.5785   -1.1802 C.3       1 <0>        -0.1257
     39 H4          1.1909   -1.2253   -1.3506 H         1 <0>         0.0892
     40 H5          0.3227    0.1231   -2.1228 H         1 <0>         0.0810
     41 H6          1.7397    0.4487   -1.0959 H         1 <0>         0.0618
     42 H7         -0.3250    0.9646    0.1394 H         1 <0>         0.0952
     43 H8         -0.9415   -0.6765   -0.1689 H         1 <0>         0.1105
     44 H9         -0.4188    0.7257    2.4279 H         1 <0>         0.0952
     45 H10        -1.0626   -0.9299    2.3157 H         1 <0>         0.1106
     46 H11         0.0735   -0.4438    4.5126 H         1 <0>         0.0799
     47 H12         0.8064   -1.7996    3.6221 H         1 <0>         0.0861
     48 H13         1.5963   -0.2045    3.6227 H         1 <0>         0.0623
     49 H14        -1.1636   -2.4425    0.8862 H         1 <0>         0.0800
     50 H15        -0.7384   -4.8564    0.6507 H         1 <0>         0.0874
     51 H16         3.4570   -4.1454    0.9374 H         1 <0>         0.0885
     52 H17         3.0322   -1.7306    1.1645 H         1 <0>         0.0797
     53 H18         1.9764   -8.5381   -0.3168 H         1 <0>         0.0720
     54 H19         0.7336   -8.0495   -1.5124 H         1 <0>         0.0700
     55 H20         2.6884   -8.9685   -2.9801 H         1 <0>         0.1228
     56 H21         4.4696   -7.1666   -3.0311 H         1 <0>         0.1272
     57 H22         6.0708   -6.6138   -1.4252 H         1 <0>         0.1295
     58 H23         6.9641   -7.4802    2.6519 H         1 <0>         0.1323
     59 H24         4.5933   -7.1789    3.2356 H         1 <0>         0.1259
     60 H25         2.4272   -6.6432    2.5085 H         1 <0>         0.3979
     61 H26        10.7194   -5.7073    1.6218 H         1 <0>         0.0589
     62 H27         9.6187   -4.3104    1.6955 H         1 <0>         0.0736
     63 H28         9.1289   -5.8678    2.4045 H         1 <0>         0.0705
     64 H29         8.6535   -5.3449   -1.6941 H         1 <0>         0.0993
     65 H30         7.3788   -3.7913   -0.2415 H         1 <0>         0.0680
     66 H31         8.9056   -3.1116    0.3712 H         1 <0>         0.0686
     67 H32         7.9891   -3.0898   -2.5402 H         1 <0>         0.0649
     68 H33         7.9620   -1.6964   -1.4331 H         1 <0>         0.0640
     69 H34         9.9760   -1.6454   -2.8787 H         1 <0>         0.0627
     70 H35        10.4222   -1.8585   -1.1688 H         1 <0>         0.0618
     71 H36        10.1702   -4.0918   -3.2342 H         1 <0>         0.0659
     72 H37        11.6969   -3.4121   -2.6215 H         1 <0>         0.0661
     73 H38        11.0866   -4.1135   -0.3228 H         1 <0>         0.0684
     74 H39        11.1137   -5.5070   -1.4299 H         1 <0>         0.0678
     75 H40         1.5445   -0.0797    1.2708 H         1 <0>         0.3997
@<TRIPOS>BOND
     1    1    2 1
     2    1   39 1
     3    1   40 1
     4    1   41 1
     5    2    3 1
     6    2   42 1
     7    2   43 1
     8    3    4 1
     9    3    6 1
    10    3   75 1
    11    4    5 1
    12    4   44 1
    13    4   45 1
    14    5   46 1
    15    5   47 1
    16    5   48 1
    17    6   11 ar
    18    6    7 ar
    19    7    8 ar
    20    7   49 1
    21    8    9 ar
    22    8   50 1
    23    9   10 ar
    24    9   12 1
    25   10   11 ar
    26   10   51 1
    27   11   52 1
    28   12   13 1
    29   12   27 1
    30   12   14 1
    31   14   15 1
    32   14   19 1
    33   14   16 1
    34   16   17 1
    35   16   53 1
    36   16   54 1
    37   17   18 2
    38   17   55 1
    39   18   19 1
    40   18   56 1
    41   19   20 1
    42   19   21 1
    43   21   26 ar
    44   21   22 ar
    45   22   23 ar
    46   22   57 1
    47   23   24 ar
    48   23   28 1
    49   24   25 ar
    50   24   58 1
    51   25   26 ar
    52   25   59 1
    53   26   27 1
    54   27   60 1
    55   28   29 2
    56   28   30 2
    57   28   31 1
    58   31   32 1
    59   31   33 1
    60   32   61 1
    61   32   62 1
    62   32   63 1
    63   33   38 1
    64   33   34 1
    65   33   64 1
    66   34   35 1
    67   34   65 1
    68   34   66 1
    69   35   36 1
    70   35   67 1
    71   35   68 1
    72   36   37 1
    73   36   69 1
    74   36   70 1
    75   37   38 1
    76   37   71 1
    77   37   72 1
    78   38   73 1
    79   38   74 1
@<TRIPOS>MOLECULE
ZINC45169147
   55    59     0     0     0
SMALL
USER_CHARGES

@<TRIPOS>ATOM
      1 C1         -0.0166    1.3750    0.0096 C.ar      1 <0>        -0.1131
      2 C2          1.1705    2.0863    0.0021 C.ar      1 <0>        -0.1012
      3 C3          2.3830    1.4205   -0.0131 C.ar      1 <0>        -0.0797
      4 C4          2.4162    0.0412   -0.0208 C.ar      1 <0>        -0.0796
      5 C5          1.2225   -0.6825   -0.0133 C.ar      1 <0>        -0.0164
      6 C6          0.0021   -0.0041    0.0020 C.ar      1 <0>        -0.0893
      7 C7          1.2502   -2.1597   -0.0220 C.2       1 <0>        -0.0804
      8 C8          0.1906   -3.0484   -0.0224 C.2       1 <0>        -0.1561
      9 C9          0.4575   -4.3918   -0.0322 C.2       1 <0>        -0.0756
     10 C10         1.7785   -4.8070   -0.0413 C.2       1 <0>        -0.1381
     11 S1          2.6600   -3.2546   -0.0426 S.3       1 <0>         0.1100
     12 C11         2.3166   -6.1743   -0.0525 C.2       1 <0>         0.3805
     13 N1          3.6493   -6.4988   -0.0556 N.pl3     1 <0>        -0.5941
     14 H1          4.3935   -5.8766   -0.0504 H         1 <0>         0.4280
     15 C12         3.7332   -7.8786   -0.0668 C.ar      1 <0>         0.0799
     16 C13         4.7896   -8.7781   -0.0748 C.ar      1 <0>        -0.1044
     17 C14         4.5337  -10.1336   -0.0861 C.ar      1 <0>        -0.0617
     18 C15         3.2280  -10.6029   -0.0899 C.ar      1 <0>        -0.1863
     19 C16         2.1747   -9.7330   -0.0821 C.ar      1 <0>        -0.0023
     20 C17         2.4096   -8.3539   -0.0701 C.ar      1 <0>         0.0508
     21 N2          1.5940   -7.2720   -0.0554 N.2       1 <0>        -0.4617
     22 C18         2.9691  -12.0874   -0.1032 C.3       1 <0>         0.5135
     23 F1          4.1883  -12.7734   -0.1099 F         1 <0>        -0.1752
     24 F2          2.2396  -12.4439    1.0361 F         1 <0>        -0.1748
     25 F3          2.2389  -12.4232   -1.2483 F         1 <0>        -0.1748
     26 C19         3.6706    2.2035   -0.0217 C.3       1 <0>         0.0975
     27 N3          4.1025    2.4509    1.3604 N.3       1 <0>        -0.6854
     28 C20         5.3575    3.2137    1.3913 C.3       1 <0>         0.0638
     29 C21         5.7744    3.4512    2.8441 C.3       1 <0>        -0.0744
     30 C22         7.0619    4.2338    2.8757 C.ar      1 <0>        -0.1347
     31 C23         8.2831    3.5767    2.8735 C.ar      1 <0>        -0.0714
     32 C24         9.4417    4.3374    2.9033 C.ar      1 <0>        -0.1697
     33 C25         9.3418    5.7157    2.9340 C.ar      1 <0>         0.0943
     34 N4          8.1631    6.3067    2.9356 N.ar      1 <0>        -0.4834
     35 C26         7.0406    5.6152    2.9015 C.ar      1 <0>         0.1011
     36 H2         -0.9598    1.9010    0.0260 H         1 <0>         0.1310
     37 H3          1.1502    3.1661    0.0077 H         1 <0>         0.1247
     38 H4          3.3634   -0.4774   -0.0330 H         1 <0>         0.1246
     39 H5         -0.9250   -0.5580    0.0083 H         1 <0>         0.1297
     40 H6         -0.8281   -2.6899   -0.0149 H         1 <0>         0.1474
     41 H7         -0.3465   -5.1130   -0.0325 H         1 <0>         0.1518
     42 H8          5.8080   -8.4185   -0.0726 H         1 <0>         0.1392
     43 H9          5.3555  -10.8344   -0.0924 H         1 <0>         0.1493
     44 H10         1.1624  -10.1092   -0.0852 H         1 <0>         0.1449
     45 H11         4.4384    1.6345   -0.5459 H         1 <0>         0.0827
     46 H12         3.5137    3.1553   -0.5292 H         1 <0>         0.0442
     47 H13         3.3808    2.9208    1.8862 H         1 <0>         0.3445
     48 H14         6.1370    2.6517    0.8768 H         1 <0>         0.0749
     49 H15         5.2123    4.1725    0.8935 H         1 <0>         0.0344
     50 H16         4.9949    4.0133    3.3585 H         1 <0>         0.0763
     51 H17         5.9197    2.4925    3.3418 H         1 <0>         0.0851
     52 H18         8.3305    2.4980    2.8494 H         1 <0>         0.1347
     53 H19        10.4100    3.8592    2.9028 H         1 <0>         0.1361
     54 H20        10.2397    6.3155    2.9573 H         1 <0>         0.1561
     55 H21         6.0937    6.1345    2.8986 H         1 <0>         0.1530
@<TRIPOS>BOND
     1    1    6 ar
     2    1    2 ar
     3    1   36 1
     4    2    3 ar
     5    2   37 1
     6    3    4 ar
     7    3   26 1
     8    4    5 ar
     9    4   38 1
    10    5    6 ar
    11    5    7 1
    12    6   39 1
    13    7   11 1
    14    7    8 2
    15    8    9 1
    16    8   40 1
    17    9   10 2
    18    9   41 1
    19   10   11 1
    20   10   12 1
    21   12   21 2
    22   12   13 1
    23   13   14 1
    24   13   15 1
    25   15   20 ar
    26   15   16 ar
    27   16   17 ar
    28   16   42 1
    29   17   18 ar
    30   17   43 1
    31   18   19 ar
    32   18   22 1
    33   19   20 ar
    34   19   44 1
    35   20   21 1
    36   22   23 1
    37   22   24 1
    38   22   25 1
    39   26   27 1
    40   26   45 1
    41   26   46 1
    42   27   28 1
    43   27   47 1
    44   28   29 1
    45   28   48 1
    46   28   49 1
    47   29   30 1
    48   29   50 1
    49   29   51 1
    50   30   35 ar
    51   30   31 ar
    52   31   32 ar
    53   31   52 1
    54   32   33 ar
    55   32   53 1
    56   33   34 ar
    57   33   54 1
    58   34   35 ar
    59   35   55 1
@<TRIPOS>MOLECULE
ZINC01045474
   46    48     0     0     0
SMALL
USER_CHARGES
ethyl 4-[[4-amino-5-(4-bromobenzoyl)-3-cyano-2-thienyl]methyl]benzoate
@<TRIPOS>ATOM
      1 C1         -4.3240   -2.0640    7.7742 C.3       1 <0>        -0.1541
      2 C2         -4.6642   -0.6613    7.2667 C.3       1 <0>         0.0630
      3 O1         -4.1839   -0.5096    5.9049 O.3       1 <0>        -0.3539
      4 C3         -4.4051    0.6772    5.3071 C.2       1 <0>         0.5084
      5 O2         -4.9833    1.5611    5.9070 O.2       1 <0>        -0.5024
      6 C4         -3.9443    0.9037    3.9219 C.ar      1 <0>        -0.1204
      7 C5         -4.1719    2.1325    3.2992 C.ar      1 <0>        -0.0496
      8 C6         -3.7386    2.3374    2.0057 C.ar      1 <0>        -0.1174
      9 C7         -3.0798    1.3286    1.3254 C.ar      1 <0>        -0.0542
     10 C8         -2.8557    0.1066    1.9346 C.ar      1 <0>        -0.1192
     11 C9         -3.2789   -0.1100    3.2296 C.ar      1 <0>        -0.0569
     12 C10        -2.6098    1.5596   -0.0876 C.3       1 <0>        -0.0179
     13 C11        -1.2098    2.1168   -0.0666 C.2       1 <0>        -0.0646
     14 C12        -0.0107    1.4246   -0.0859 C.2       1 <0>        -0.1392
     15 C13         1.1733    2.1587   -0.0658 C.2       1 <0>         0.3172
     16 C14         1.0520    3.5453   -0.0221 C.2       1 <0>        -0.3850
     17 S1         -0.7157    3.7765   -0.0105 S.3       1 <0>         0.2321
     18 C15         2.0725    4.5226    0.0055 C.2       1 <0>         0.4883
     19 O3          3.2380    4.1835    0.1127 O.2       1 <0>        -0.4707
     20 C16         1.7258    5.9572   -0.0956 C.ar      1 <0>        -0.1363
     21 C17         2.5954    6.9255    0.4091 C.ar      1 <0>        -0.0569
     22 C18         2.2694    8.2616    0.3067 C.ar      1 <0>        -0.0965
     23 C19         1.0766    8.6428   -0.2845 C.ar      1 <0>        -0.0676
     24 C20         0.2072    7.6865   -0.7818 C.ar      1 <0>        -0.0937
     25 C21         0.5252    6.3476   -0.6909 C.ar      1 <0>        -0.0794
     26 Br1         0.6334   10.4766   -0.4137 Br        1 <0>        -0.0383
     27 N1          2.4131    1.5384   -0.0888 N.pl3     1 <0>        -0.8211
     28 C22         0.0119   -0.0065   -0.1312 C.1       1 <0>         0.2611
     29 N2          0.0297   -1.1418   -0.1672 N.1       1 <0>        -0.4046
     30 H1         -4.8015   -2.8072    7.1356 H         1 <0>         0.0677
     31 H2         -3.2436   -2.2063    7.7520 H         1 <0>         0.0675
     32 H3         -4.6846   -2.1779    8.7965 H         1 <0>         0.0826
     33 H4         -4.1867    0.0819    7.9053 H         1 <0>         0.0724
     34 H5         -5.7447   -0.5190    7.2889 H         1 <0>         0.0725
     35 H6         -4.6857    2.9209    3.8292 H         1 <0>         0.1431
     36 H7         -3.9137    3.2876    1.5230 H         1 <0>         0.1394
     37 H8         -2.3445   -0.6779    1.3965 H         1 <0>         0.1288
     38 H9         -3.0994   -1.0627    3.7055 H         1 <0>         0.1409
     39 H10        -3.2754    2.2681   -0.5807 H         1 <0>         0.1139
     40 H11        -2.6169    0.6153   -0.6319 H         1 <0>         0.1071
     41 H12         3.5239    6.6291    0.8744 H         1 <0>         0.1440
     42 H13         2.9436    9.0119    0.6925 H         1 <0>         0.1417
     43 H14        -0.7215    7.9899   -1.2422 H         1 <0>         0.1429
     44 H15        -0.1533    5.6028   -1.0797 H         1 <0>         0.1392
     45 H16         2.4707    0.5705   -0.1192 H         1 <0>         0.4028
     46 H17         3.2229    2.0722   -0.0744 H         1 <0>         0.4235
@<TRIPOS>BOND
     1    1    2 1
     2    1   30 1
     3    1   31 1
     4    1   32 1
     5    2    3 1
     6    2   33 1
     7    2   34 1
     8    3    4 1
     9    4    5 2
    10    4    6 1
    11    6   11 ar
    12    6    7 ar
    13    7    8 ar
    14    7   35 1
    15    8    9 ar
    16    8   36 1
    17    9   10 ar
    18    9   12 1
    19   10   11 ar
    20   10   37 1
    21   11   38 1
    22   12   13 1
    23   12   39 1
    24   12   40 1
    25   13   17 1
    26   13   14 2
    27   14   15 1
    28   14   28 1
    29   15   16 2
    30   15   27 1
    31   16   17 1
    32   16   18 1
    33   18   19 2
    34   18   20 1
    35   20   25 ar
    36   20   21 ar
    37   21   22 ar
    38   21   41 1
    39   22   23 ar
    40   22   42 1
    41   23   24 ar
    42   23   26 1
    43   24   25 ar
    44   24   43 1
    45   25   44 1
    46   27   45 1
    47   27   46 1
    48   28   29 3
@<TRIPOS>MOLECULE
ZINC03616703
   69    72     0     0     0
SMALL
USER_CHARGES
N'-[2-hydroxy-2,2-bis(p-tolyl)acetyl]-N-[(1S)-1-(p-tolyl)ethyl]benzohydrazide
@<TRIPOS>ATOM
      1 C1          0.2543    2.2918   -3.5570 C.3       1 <0>        -0.1169
      2 C2         -0.9136    1.9493   -2.6684 C.ar      1 <0>        -0.0813
      3 C3         -1.1453    0.6353   -2.3071 C.ar      1 <0>        -0.1177
      4 C4         -2.2169    0.3211   -1.4924 C.ar      1 <0>        -0.0997
      5 C5         -3.0599    1.3203   -1.0432 C.ar      1 <0>        -0.1062
      6 C6         -2.8249    2.6351   -1.3997 C.ar      1 <0>        -0.1077
      7 C7         -1.7535    2.9492   -2.2148 C.ar      1 <0>        -0.1173
      8 C8         -4.2318    0.9771   -0.1600 C.3       1 <0>         0.1827
      9 H1         -4.1318   -0.0491    0.1937 H         1 <0>         0.1232
     10 C9         -5.5299    1.1175   -0.9576 C.3       1 <0>        -0.1530
     11 N1         -4.2623    1.8881    0.9868 N.am      1 <0>        -0.3955
     12 C10        -4.0656    1.4110    2.2319 C.2       1 <0>         0.5759
     13 O1         -3.9445    0.2151    2.4124 O.2       1 <0>        -0.5147
     14 C11        -3.9971    2.3423    3.3781 C.ar      1 <0>        -0.1335
     15 C12        -4.2598    3.7007    3.1942 C.ar      1 <0>        -0.1289
     16 C13        -4.2003    4.5634    4.2692 C.ar      1 <0>        -0.1320
     17 C14        -3.8689    4.0866    5.5251 C.ar      1 <0>        -0.0884
     18 C15        -3.6017    2.7422    5.7131 C.ar      1 <0>        -0.1259
     19 C16        -3.6639    1.8679    4.6478 C.ar      1 <0>        -0.0569
     20 N2         -4.4960    3.2553    0.7894 N.am      1 <0>        -0.5123
     21 C17        -5.7521    3.7028    0.5931 C.2       1 <0>         0.4902
     22 O2         -6.6893    2.9385    0.6843 O.2       1 <0>        -0.4771
     23 C18        -5.9920    5.1529    0.2604 C.3       1 <0>         0.2266
     24 C19        -5.9113    5.3459   -1.2320 C.ar      1 <0>        -0.0986
     25 C20        -6.9920    5.0211   -2.0304 C.ar      1 <0>        -0.0840
     26 C21        -6.9196    5.2023   -3.3989 C.ar      1 <0>        -0.1222
     27 C22        -5.7629    5.6992   -3.9700 C.ar      1 <0>        -0.0673
     28 C23        -4.6805    6.0195   -3.1721 C.ar      1 <0>        -0.1234
     29 C24        -4.7545    5.8424   -1.8032 C.ar      1 <0>        -0.0814
     30 C25        -5.6823    5.8922   -5.4624 C.3       1 <0>        -0.1198
     31 C26        -7.3590    5.5603    0.7464 C.ar      1 <0>        -0.1279
     32 C27        -8.0368    6.5896    0.1203 C.ar      1 <0>        -0.0747
     33 C28        -9.2927    6.9604    0.5633 C.ar      1 <0>        -0.1281
     34 C29        -9.8667    6.3082    1.6386 C.ar      1 <0>        -0.0668
     35 C30        -9.1869    5.2821    2.2677 C.ar      1 <0>        -0.1247
     36 C31        -7.9329    4.9084    1.8219 C.ar      1 <0>        -0.0784
     37 C32       -11.2338    6.7156    2.1245 C.3       1 <0>        -0.1196
     38 O3         -4.9996    5.9587    0.8993 O.3       1 <0>        -0.5381
     39 H2         -0.0587    2.2513   -4.6003 H         1 <0>         0.0714
     40 H3          0.6073    3.2960   -3.3223 H         1 <0>         0.0668
     41 H4          1.0593    1.5758   -3.3912 H         1 <0>         0.0670
     42 H5         -0.4893   -0.1459   -2.6618 H         1 <0>         0.1239
     43 H6         -2.3981   -0.7056   -1.2105 H         1 <0>         0.1246
     44 H7         -3.4809    3.4163   -1.0451 H         1 <0>         0.1207
     45 H8         -1.5725    3.9759   -2.4971 H         1 <0>         0.1221
     46 H9         -5.5071    0.4396   -1.8109 H         1 <0>         0.0696
     47 H10        -6.3774    0.8692   -0.3188 H         1 <0>         0.0769
     48 H11        -5.6298    2.1436   -1.3113 H         1 <0>         0.0578
     49 H12        -4.5135    4.0750    2.2134 H         1 <0>         0.1503
     50 H13        -4.4080    5.6139    4.1292 H         1 <0>         0.1293
     51 H14        -3.8189    4.7669    6.3624 H         1 <0>         0.1288
     52 H15        -3.3444    2.3763    6.6961 H         1 <0>         0.1320
     53 H16        -3.4547    0.8187    4.7958 H         1 <0>         0.1365
     54 H17        -3.7538    3.8798    0.7939 H         1 <0>         0.4235
     55 H18        -7.8942    4.6291   -1.5846 H         1 <0>         0.1277
     56 H19        -7.7654    4.9524   -4.0222 H         1 <0>         0.1263
     57 H20        -3.7768    6.4077   -3.6183 H         1 <0>         0.1260
     58 H21        -3.9087    6.0923   -1.1799 H         1 <0>         0.1329
     59 H22        -5.3028    4.9819   -5.9265 H         1 <0>         0.0734
     60 H23        -6.6750    6.1133   -5.8544 H         1 <0>         0.0685
     61 H24        -5.0106    6.7211   -5.6858 H         1 <0>         0.0688
     62 H25        -7.5866    7.1019   -0.7172 H         1 <0>         0.1270
     63 H26        -9.8239    7.7619    0.0716 H         1 <0>         0.1256
     64 H27        -9.6353    4.7726    3.1077 H         1 <0>         0.1241
     65 H28        -7.4016    4.1070    2.3137 H         1 <0>         0.1247
     66 H29       -11.1333    7.4919    2.8830 H         1 <0>         0.0735
     67 H30       -11.8176    7.0987    1.2876 H         1 <0>         0.0685
     68 H31       -11.7391    5.8508    2.5544 H         1 <0>         0.0682
     69 H32        -4.9936    5.8843    1.8634 H         1 <0>         0.3847
@<TRIPOS>BOND
     1    1    2 1
     2    1   39 1
     3    1   40 1
     4    1   41 1
     5    2    7 ar
     6    2    3 ar
     7    3    4 ar
     8    3   42 1
     9    4    5 ar
    10    4   43 1
    11    5    6 ar
    12    5    8 1
    13    6    7 ar
    14    6   44 1
    15    7   45 1
    16    8    9 1
    17    8   10 1
    18    8   11 1
    19   10   46 1
    20   10   47 1
    21   10   48 1
    22   11   12 am
    23   11   20 1
    24   12   13 2
    25   12   14 1
    26   14   19 ar
    27   14   15 ar
    28   15   16 ar
    29   15   49 1
    30   16   17 ar
    31   16   50 1
    32   17   18 ar
    33   17   51 1
    34   18   19 ar
    35   18   52 1
    36   19   53 1
    37   20   21 am
    38   20   54 1
    39   21   22 2
    40   21   23 1
    41   23   24 1
    42   23   31 1
    43   23   38 1
    44   24   29 ar
    45   24   25 ar
    46   25   26 ar
    47   25   55 1
    48   26   27 ar
    49   26   56 1
    50   27   28 ar
    51   27   30 1
    52   28   29 ar
    53   28   57 1
    54   29   58 1
    55   30   59 1
    56   30   60 1
    57   30   61 1
    58   31   36 ar
    59   31   32 ar
    60   32   33 ar
    61   32   62 1
    62   33   34 ar
    63   33   63 1
    64   34   35 ar
    65   34   37 1
    66   35   36 ar
    67   35   64 1
    68   36   65 1
    69   37   66 1
    70   37   67 1
    71   37   68 1
    72   38   69 1
@<TRIPOS>MOLECULE
ZINC14969280
   73    78     0     0     0
SMALL
USER_CHARGES
(1S)-6-[(2R)-2-cyclopentyl-2-phenyl-acetyl]-N-[2-(1H-indol-3-yl)ethyl]-6-azaspiro[2.5]octane-1-carboxamide
@<TRIPOS>ATOM
      1 C1          2.9053    2.4925    3.4836 C.ar      1 <0>        -0.1180
      2 C2          2.6185    3.4443    2.5230 C.ar      1 <0>        -0.1164
      3 C3          2.2104    3.0523    1.2618 C.ar      1 <0>        -0.1122
      4 C4          2.0894    1.7085    0.9611 C.ar      1 <0>        -0.0711
      5 C5          2.3712    0.7568    1.9233 C.ar      1 <0>        -0.1051
      6 C6          2.7835    1.1487    3.1832 C.ar      1 <0>        -0.1157
      7 C7          1.6445    1.2811   -0.4138 C.3       1 <0>        -0.0616
      8 H1          1.4659    2.1634   -1.0285 H         1 <0>         0.0983
      9 C8          2.7344    0.4225   -1.0586 C.3       1 <0>        -0.0700
     10 C9          4.0575    1.2127   -1.1284 C.3       1 <0>        -0.1151
     11 C10         4.6841    0.7857   -2.4790 C.3       1 <0>        -0.1256
     12 C11         3.4505    0.6779   -3.4093 C.3       1 <0>        -0.1255
     13 C12         2.3485    0.0824   -2.5089 C.3       1 <0>        -0.1166
     14 C13         0.3730    0.4797   -0.3039 C.2       1 <0>         0.5278
     15 O1          0.4210   -0.7316   -0.2671 O.2       1 <0>        -0.5320
     16 N1         -0.8177    1.1088   -0.2519 N.am      1 <0>        -0.6079
     17 C14        -0.8930    2.5687   -0.3904 C.3       1 <0>         0.1091
     18 C15        -1.5884    3.1521    0.8396 C.3       1 <0>        -0.1006
     19 C16        -2.9050    2.4024    1.0651 C.3       1 <0>        -0.0967
     20 C17        -2.7725    0.8816    1.1929 C.3       1 <0>        -0.0966
     21 C18        -2.0542    0.3428   -0.0502 C.3       1 <0>         0.1144
     22 C19        -4.1591    2.9506    0.3848 C.3       1 <0>        -0.1354
     23 C20        -3.9832    3.0944    1.8982 C.3       1 <0>        -0.1844
     24 H2         -4.6037    2.4678    2.5388 H         1 <0>         0.1270
     25 C21        -3.6730    4.4678    2.4354 C.2       1 <0>         0.5458
     26 O2         -3.8682    5.4467    1.7466 O.2       1 <0>        -0.5366
     27 N2         -3.1786    4.6082    3.6813 N.am      1 <0>        -0.7276
     28 C22        -2.8770    5.9433    4.2036 C.3       1 <0>         0.1253
     29 C23        -2.3325    5.8226    5.6283 C.3       1 <0>        -0.0519
     30 C24        -2.0223    7.1960    6.1655 C.2       1 <0>        -0.1724
     31 C25        -0.8284    7.8093    6.1481 C.2       1 <0>         0.0613
     32 N3         -0.9312    9.0472    6.7222 N.pl3     1 <0>        -0.5947
     33 H3         -0.2009    9.6777    6.8217 H         1 <0>         0.4170
     34 C26        -2.2249    9.2625    7.1418 C.ar      1 <0>         0.0951
     35 C27        -2.9651    8.1124    6.8115 C.ar      1 <0>        -0.1005
     36 C28        -4.3246    8.0463    7.1214 C.ar      1 <0>        -0.0714
     37 C29        -4.9301    9.1004    7.7458 C.ar      1 <0>        -0.1445
     38 C30        -4.2044   10.2370    8.0737 C.ar      1 <0>        -0.0977
     39 C31        -2.8617   10.3236    7.7766 C.ar      1 <0>        -0.1303
     40 H4          3.2249    2.7988    4.4687 H         1 <0>         0.1210
     41 H5          2.7137    4.4942    2.7578 H         1 <0>         0.1218
     42 H6          1.9863    3.7959    0.5113 H         1 <0>         0.1202
     43 H7          2.2725   -0.2930    1.6897 H         1 <0>         0.1242
     44 H8          3.0080    0.4051    3.9335 H         1 <0>         0.1220
     45 H9          2.8757   -0.4936   -0.4852 H         1 <0>         0.0853
     46 H10         3.8622    2.2851   -1.1206 H         1 <0>         0.0663
     47 H11         4.7107    0.9369   -0.3006 H         1 <0>         0.0659
     48 H12         5.1830   -0.1789   -2.3856 H         1 <0>         0.0670
     49 H13         5.3775    1.5438   -2.8432 H         1 <0>         0.0661
     50 H14         3.6607    0.0117   -4.2461 H         1 <0>         0.0647
     51 H15         3.1562    1.6628   -3.7717 H         1 <0>         0.0639
     52 H16         2.3033   -0.9988   -2.6395 H         1 <0>         0.0682
     53 H17         1.3843    0.5284   -2.7530 H         1 <0>         0.0579
     54 H18         0.1132    2.9806   -0.4687 H         1 <0>         0.0879
     55 H19        -1.4639    2.8220   -1.2837 H         1 <0>         0.0739
     56 H20        -1.7935    4.2103    0.6776 H         1 <0>         0.0813
     57 H21        -0.9453    3.0316    1.7114 H         1 <0>         0.0743
     58 H22        -3.7634    0.4333    1.2655 H         1 <0>         0.0807
     59 H23        -2.1932    0.6389    2.0837 H         1 <0>         0.0736
     60 H24        -2.6992    0.4541   -0.9218 H         1 <0>         0.0707
     61 H25        -1.8120   -0.7099    0.0955 H         1 <0>         0.0961
     62 H26        -4.0504    3.8494   -0.2222 H         1 <0>         0.1079
     63 H27        -4.8954    2.2295    0.0299 H         1 <0>         0.1047
     64 H28        -3.0224    3.8252    4.2323 H         1 <0>         0.4011
     65 H29        -2.1312    6.4218    3.5689 H         1 <0>         0.0669
     66 H30        -3.7865    6.5441    4.2119 H         1 <0>         0.0687
     67 H31        -3.0783    5.3441    6.2630 H         1 <0>         0.0764
     68 H32        -1.4231    5.2218    5.6200 H         1 <0>         0.0760
     69 H33         0.0785    7.3891    5.7391 H         1 <0>         0.1698
     70 H34        -4.8957    7.1651    6.8690 H         1 <0>         0.1201
     71 H35        -5.9818    9.0485    7.9859 H         1 <0>         0.1227
     72 H36        -4.6970   11.0619    8.5669 H         1 <0>         0.1256
     73 H37        -2.3057   11.2125    8.0355 H         1 <0>         0.1199
@<TRIPOS>BOND
     1    1    6 ar
     2    1    2 ar
     3    1   40 1
     4    2    3 ar
     5    2   41 1
     6    3    4 ar
     7    3   42 1
     8    4    5 ar
     9    4    7 1
    10    5    6 ar
    11    5   43 1
    12    6   44 1
    13    7    8 1
    14    7    9 1
    15    7   14 1
    16    9   13 1
    17    9   10 1
    18    9   45 1
    19   10   11 1
    20   10   46 1
    21   10   47 1
    22   11   12 1
    23   11   48 1
    24   11   49 1
    25   12   13 1
    26   12   50 1
    27   12   51 1
    28   13   52 1
    29   13   53 1
    30   14   15 2
    31   14   16 am
    32   16   21 1
    33   16   17 1
    34   17   18 1
    35   17   54 1
    36   17   55 1
    37   18   19 1
    38   18   56 1
    39   18   57 1
    40   19   23 1
    41   19   20 1
    42   19   22 1
    43   20   21 1
    44   20   58 1
    45   20   59 1
    46   21   60 1
    47   21   61 1
    48   22   23 1
    49   22   62 1
    50   22   63 1
    51   23   24 1
    52   23   25 1
    53   25   26 2
    54   25   27 am
    55   27   28 1
    56   27   64 1
    57   28   29 1
    58   28   65 1
    59   28   66 1
    60   29   30 1
    61   29   67 1
    62   29   68 1
    63   30   35 1
    64   30   31 2
    65   31   32 1
    66   31   69 1
    67   32   33 1
    68   32   34 1
    69   34   39 ar
    70   34   35 ar
    71   35   36 ar
    72   36   37 ar
    73   36   70 1
    74   37   38 ar
    75   37   71 1
    76   38   39 ar
    77   38   72 1
    78   39   73 1
@<TRIPOS>MOLECULE
ZINC22526681
   57    59     0     0     0
SMALL
USER_CHARGES
3-[(2,4-dimethylphenyl)sulfamoyl]-N-(2-ethylsulfanylphenyl)-4-methyl-benzamide
@<TRIPOS>ATOM
      1 C1         -4.1927   -0.8937    2.5269 C.3       1 <0>        -0.1409
      2 C2         -4.1077    0.4742    1.8469 C.3       1 <0>        -0.1048
      3 S1         -2.4363    0.7178    1.1853 S.3       1 <0>        -0.1303
      4 C3         -2.4997    2.3152    0.4444 C.ar      1 <0>        -0.1104
      5 C4         -3.6755    3.0517    0.4775 C.ar      1 <0>        -0.1154
      6 C5         -3.7224    4.3046   -0.1039 C.ar      1 <0>        -0.1147
      7 C6         -2.6002    4.8284   -0.7195 C.ar      1 <0>        -0.1030
      8 C7         -1.4231    4.1042   -0.7527 C.ar      1 <0>        -0.1067
      9 C8         -1.3678    2.8439   -0.1771 C.ar      1 <0>         0.1694
     10 N1         -0.1778    2.1062   -0.2144 N.am      1 <0>        -0.6765
     11 C9          1.0100    2.7395   -0.1475 C.2       1 <0>         0.5653
     12 O1          1.0515    3.9545   -0.1393 O.2       1 <0>        -0.5114
     13 C10         2.2624    1.9568   -0.0841 C.ar      1 <0>        -0.1593
     14 C11         2.2180    0.5615   -0.0876 C.ar      1 <0>        -0.0239
     15 C12         3.3907   -0.1629   -0.0341 C.ar      1 <0>        -0.1452
     16 C13         4.6086    0.4906    0.0345 C.ar      1 <0>         0.0511
     17 C14         4.6593    1.8730    0.0441 C.ar      1 <0>        -0.6848
     18 C15         3.4941    2.6096   -0.0148 C.ar      1 <0>         0.0489
     19 S2          6.2154    2.6950    0.1310 S.o2      1 <0>         2.6956
     20 O2          5.9420    4.0885    0.0802 O.2       1 <0>        -0.9455
     21 O3          6.9309    2.0976    1.2037 O.2       1 <0>        -0.9449
     22 N2          7.0431    2.3242   -1.2545 N.pl3     1 <0>        -1.0642
     23 C16         6.5148    2.6756   -2.4988 C.ar      1 <0>         0.1499
     24 C17         5.8033    3.8600   -2.6438 C.ar      1 <0>        -0.1643
     25 C18         5.2827    4.2046   -3.8754 C.ar      1 <0>        -0.0947
     26 C19         5.4693    3.3723   -4.9642 C.ar      1 <0>        -0.0957
     27 C20         6.1770    2.1928   -4.8234 C.ar      1 <0>        -0.0994
     28 C21         6.7045    1.8444   -3.5953 C.ar      1 <0>        -0.0989
     29 C22         7.4809    0.5617   -3.4443 C.3       1 <0>        -0.1166
     30 C23         4.9006    3.7521   -6.3071 C.3       1 <0>        -0.1172
     31 C24         5.8854   -0.3074    0.0985 C.3       1 <0>        -0.1554
     32 H1         -5.2062   -1.0414    2.9281 H         1 <0>         0.0785
     33 H2         -3.4627   -0.9408    3.3484 H         1 <0>         0.0678
     34 H3         -3.9703   -1.6824    1.7931 H         1 <0>         0.0675
     35 H4         -4.8377    0.5213    1.0254 H         1 <0>         0.0899
     36 H5         -4.3301    1.2629    2.5807 H         1 <0>         0.0903
     37 H6         -4.5536    2.6460    0.9579 H         1 <0>         0.1265
     38 H7         -4.6382    4.8764   -0.0773 H         1 <0>         0.1279
     39 H8         -2.6424    5.8082   -1.1720 H         1 <0>         0.1304
     40 H9         -0.5476    4.5184   -1.2307 H         1 <0>         0.1468
     41 H10        -0.2127    1.0100   -0.2983 H         1 <0>         0.4317
     42 H11         1.2679    0.0503   -0.1362 H         1 <0>         0.1352
     43 H12         3.3580   -1.2423   -0.0412 H         1 <0>         0.1436
     44 H13         3.5351    3.6888   -0.0076 H         1 <0>         0.1582
     45 H14         8.0090    1.8012   -1.1949 H         1 <0>         0.4525
     46 H15         5.6578    4.5107   -1.7942 H         1 <0>         0.1590
     47 H16         4.7295    5.1252   -3.9888 H         1 <0>         0.1286
     48 H17         6.3209    1.5452   -5.6756 H         1 <0>         0.1258
     49 H18         7.5244    0.0432   -4.4135 H         1 <0>         0.0702
     50 H19         6.9831   -0.0834   -2.7053 H         1 <0>         0.0699
     51 H20         8.5019    0.7890   -3.1039 H         1 <0>         0.0702
     52 H21         5.1490    2.9739   -7.0438 H         1 <0>         0.0651
     53 H22         5.3302    4.7122   -6.6289 H         1 <0>         0.0711
     54 H23         3.8075    3.8473   -6.2287 H         1 <0>         0.0699
     55 H24         6.7442    0.3782    0.1481 H         1 <0>         0.0735
     56 H25         5.9699   -0.9366   -0.7998 H         1 <0>         0.0936
     57 H26         5.8740   -0.9462    0.9939 H         1 <0>         0.1000
@<TRIPOS>BOND
     1    1    2 1
     2    1   32 1
     3    1   33 1
     4    1   34 1
     5    2    3 1
     6    2   35 1
     7    2   36 1
     8    3    4 1
     9    4    9 ar
    10    4    5 ar
    11    5    6 ar
    12    5   37 1
    13    6    7 ar
    14    6   38 1
    15    7    8 ar
    16    7   39 1
    17    8    9 ar
    18    8   40 1
    19    9   10 1
    20   10   11 am
    21   10   41 1
    22   11   12 2
    23   11   13 1
    24   13   18 ar
    25   13   14 ar
    26   14   15 ar
    27   14   42 1
    28   15   16 ar
    29   15   43 1
    30   16   17 ar
    31   16   31 1
    32   17   18 ar
    33   17   19 1
    34   18   44 1
    35   19   20 2
    36   19   21 2
    37   19   22 1
    38   22   23 1
    39   22   45 1
    40   23   28 ar
    41   23   24 ar
    42   24   25 ar
    43   24   46 1
    44   25   26 ar
    45   25   47 1
    46   26   27 ar
    47   26   30 1
    48   27   28 ar
    49   27   48 1
    50   28   29 1
    51   29   49 1
    52   29   50 1
    53   29   51 1
    54   30   52 1
    55   30   53 1
    56   30   54 1
    57   31   55 1
    58   31   56 1
    59   31   57 1
@<TRIPOS>MOLECULE
ZINC36546019
   65    67     0     0     0
SMALL
USER_CHARGES

@<TRIPOS>ATOM
      1 C1         -1.0804    2.7309   -0.6038 C.3       1 <0>        -0.1491
      2 C2         -0.7673    1.3015   -0.1570 C.3       1 <0>        -0.0342
      3 H1         -1.6901    0.7227   -0.1181 H         1 <0>         0.0866
      4 C3          0.1982    0.6558   -1.1528 C.3       1 <0>        -0.1274
      5 C4         -0.4801    0.5156   -2.4912 C.2       1 <0>         0.5349
      6 O1         -1.6232    0.8948   -2.6345 O.2       1 <0>        -0.5221
      7 N1          0.1836   -0.0313   -3.5290 N.am      1 <0>        -0.5452
      8 C5          1.5029   -0.4690   -3.3637 C.ar      1 <0>         0.1253
      9 C6          1.7586   -1.7796   -2.9830 C.ar      1 <0>        -0.0772
     10 C7          3.0614   -2.2087   -2.8211 C.ar      1 <0>        -0.1178
     11 C8          4.1112   -1.3348   -3.0371 C.ar      1 <0>        -0.0953
     12 C9          3.8609   -0.0289   -3.4162 C.ar      1 <0>        -0.1159
     13 C10         2.5597    0.4055   -3.5856 C.ar      1 <0>        -0.0270
     14 Cl1         2.2459    2.0432   -4.0687 Cl        1 <0>        -0.0518
     15 C11        -0.4757   -0.1676   -4.8302 C.3       1 <0>         0.1673
     16 H2         -1.4442    0.3317   -4.8008 H         1 <0>         0.1355
     17 C12         0.3823    0.4629   -5.8966 C.ar      1 <0>        -0.1107
     18 C13         1.6221   -0.0735   -6.1914 C.ar      1 <0>        -0.0737
     19 C14         2.4108    0.5028   -7.1683 C.ar      1 <0>        -0.1397
     20 C15         1.9577    1.6205   -7.8540 C.ar      1 <0>         0.1216
     21 C16         0.7132    2.1565   -7.5566 C.ar      1 <0>        -0.1444
     22 C17        -0.0739    1.5734   -6.5825 C.ar      1 <0>        -0.0776
     23 O2          2.7319    2.1895   -8.8151 O.3       1 <0>        -0.4989
     24 C18        -0.6730   -1.6285   -5.1427 C.2       1 <0>         0.5163
     25 O3         -0.2997   -2.4728   -4.3561 O.2       1 <0>        -0.5209
     26 N2         -1.2644   -1.9969   -6.2964 N.am      1 <0>        -0.7153
     27 C19        -1.4562   -3.4172   -6.6003 C.3       1 <0>         0.1709
     28 C20        -2.3274   -4.0572   -5.5176 C.3       1 <0>        -0.1637
     29 C21        -2.1448   -3.5595   -7.9592 C.3       1 <0>        -0.1567
     30 C22        -0.0968   -4.1180   -6.6415 C.3       1 <0>        -0.1620
     31 C23        -0.1342    1.3299    1.2103 C.ar      1 <0>        -0.0770
     32 C24         1.0504    2.0140    1.4093 C.ar      1 <0>        -0.1138
     33 C25         1.6312    2.0400    2.6634 C.ar      1 <0>        -0.1178
     34 C26         1.0272    1.3824    3.7187 C.ar      1 <0>        -0.1237
     35 C27        -0.1579    0.6991    3.5198 C.ar      1 <0>        -0.1177
     36 C28        -0.7409    0.6766    2.2667 C.ar      1 <0>        -0.1150
     37 H3         -0.1576    3.3098   -0.6427 H         1 <0>         0.0509
     38 H4         -1.5383    2.7104   -1.5927 H         1 <0>         0.0767
     39 H5         -1.7682    3.1910    0.1056 H         1 <0>         0.0563
     40 H6          1.0840    1.2820   -1.2582 H         1 <0>         0.0960
     41 H7          0.4907   -0.3291   -0.7888 H         1 <0>         0.0969
     42 H8          0.9395   -2.4627   -2.8134 H         1 <0>         0.1581
     43 H9          3.2605   -3.2281   -2.5250 H         1 <0>         0.1326
     44 H10         5.1289   -1.6730   -2.9090 H         1 <0>         0.1339
     45 H11         4.6830    0.6512   -3.5838 H         1 <0>         0.1362
     46 H12         1.9744   -0.9436   -5.6573 H         1 <0>         0.1232
     47 H13         3.3794    0.0839   -7.3977 H         1 <0>         0.1278
     48 H14         0.3582    3.0266   -8.0890 H         1 <0>         0.1307
     49 H15        -1.0447    1.9876   -6.3537 H         1 <0>         0.1293
     50 H16         2.5857    1.8311   -9.7012 H         1 <0>         0.3923
     51 H17        -1.5630   -1.3217   -6.9256 H         1 <0>         0.4000
     52 H18        -3.2959   -3.5579   -5.4882 H         1 <0>         0.0541
     53 H19        -2.4701   -5.1139   -5.7437 H         1 <0>         0.0633
     54 H20        -1.8368   -3.9558   -4.5495 H         1 <0>         0.0779
     55 H21        -1.5242   -3.1035   -8.7305 H         1 <0>         0.0620
     56 H22        -2.2875   -4.6162   -8.1852 H         1 <0>         0.0747
     57 H23        -3.1133   -3.0602   -7.9298 H         1 <0>         0.0627
     58 H24         0.3937   -4.0166   -5.6734 H         1 <0>         0.0778
     59 H25        -0.2395   -5.1747   -6.8676 H         1 <0>         0.0629
     60 H26         0.5238   -3.6620   -7.4129 H         1 <0>         0.0530
     61 H27         1.5224    2.5278    0.5849 H         1 <0>         0.1194
     62 H28         2.5571    2.5739    2.8188 H         1 <0>         0.1210
     63 H29         1.4813    1.4021    4.6983 H         1 <0>         0.1206
     64 H30        -0.6297    0.1850    4.3442 H         1 <0>         0.1215
     65 H31        -1.6688    0.1459    2.1121 H         1 <0>         0.1213
@<TRIPOS>BOND
     1    1    2 1
     2    1   37 1
     3    1   38 1
     4    1   39 1
     5    2    3 1
     6    2    4 1
     7    2   31 1
     8    4    5 1
     9    4   40 1
    10    4   41 1
    11    5    6 2
    12    5    7 am
    13    7    8 1
    14    7   15 1
    15    8   13 ar
    16    8    9 ar
    17    9   10 ar
    18    9   42 1
    19   10   11 ar
    20   10   43 1
    21   11   12 ar
    22   11   44 1
    23   12   13 ar
    24   12   45 1
    25   13   14 1
    26   15   16 1
    27   15   17 1
    28   15   24 1
    29   17   22 ar
    30   17   18 ar
    31   18   19 ar
    32   18   46 1
    33   19   20 ar
    34   19   47 1
    35   20   21 ar
    36   20   23 1
    37   21   22 ar
    38   21   48 1
    39   22   49 1
    40   23   50 1
    41   24   25 2
    42   24   26 am
    43   26   27 1
    44   26   51 1
    45   27   28 1
    46   27   29 1
    47   27   30 1
    48   28   52 1
    49   28   53 1
    50   28   54 1
    51   29   55 1
    52   29   56 1
    53   29   57 1
    54   30   58 1
    55   30   59 1
    56   30   60 1
    57   31   36 ar
    58   31   32 ar
    59   32   33 ar
    60   32   61 1
    61   33   34 ar
    62   33   62 1
    63   34   35 ar
    64   34   63 1
    65   35   36 ar
    66   35   64 1
    67   36   65 1
@<TRIPOS>MOLECULE
ZINC01439760
   62    66     0     0     0
SMALL
USER_CHARGES

@<TRIPOS>ATOM
      1 C1         -0.0184    1.5028    0.0103 C.3       1 <0>        -0.1158
      2 C2          0.0021   -0.0041    0.0020 C.2       1 <0>         0.2314
      3 C3         -1.1555   -0.6874    0.0038 C.2       1 <0>        -0.2481
      4 C4         -1.1739   -2.1877   -0.0122 C.3       1 <0>         0.0795
      5 H1         -1.9389   -2.5436    0.6780 H         1 <0>         0.0963
      6 C5          0.1638   -2.7495    0.3989 C.2       1 <0>        -0.2651
      7 C6          1.2717   -1.9787    0.3761 C.2       1 <0>         0.2120
      8 N1          1.1976   -0.6667   -0.0130 N.pl3     1 <0>        -0.6304
      9 C7          2.6164   -2.5393    0.7683 C.3       1 <0>        -0.0926
     10 C8          2.4294   -3.6328    1.8224 C.3       1 <0>         0.0124
     11 H2          1.9668   -3.2076    2.7131 H         1 <0>         0.1053
     12 C9          1.5207   -4.7201    1.2396 C.3       1 <0>        -0.1623
     13 C10         0.2235   -4.0939    0.8060 C.2       1 <0>         0.4046
     14 O1         -0.7914   -4.7620    0.8083 O.2       1 <0>        -0.4563
     15 C11         3.7682   -4.2246    2.1808 C.2       1 <0>        -0.1464
     16 C12         4.3863   -4.2699    3.3863 C.2       1 <0>        -0.1458
     17 C13         5.6272   -4.8714    3.4812 C.2       1 <0>        -0.1583
     18 C14         6.1893   -5.3982    2.3659 C.2       1 <0>        -0.1671
     19 S1          4.9481   -5.0551    1.1294 S.3       1 <0>         0.0401
     20 C15        -1.5029   -2.6638   -1.4036 C.ar      1 <0>        -0.0483
     21 C16        -0.6780   -2.3284   -2.4616 C.ar      1 <0>        -0.1198
     22 C17        -0.9770   -2.7635   -3.7393 C.ar      1 <0>        -0.1076
     23 C18        -2.1016   -3.5345   -3.9622 C.ar      1 <0>        -0.1491
     24 C19        -2.9307   -3.8723   -2.9026 C.ar      1 <0>         0.1034
     25 C20        -2.6250   -3.4394   -1.6203 C.ar      1 <0>        -0.1142
     26 O2         -4.0374   -4.6307   -3.1193 O.3       1 <0>        -0.4997
     27 C21        -2.3795    0.0213    0.0215 C.2       1 <0>         0.5216
     28 O3         -2.3779    1.2381    0.0350 O.2       1 <0>        -0.5218
     29 O4         -3.5490   -0.6519    0.0235 O.3       1 <0>        -0.3438
     30 C22        -4.7464    0.1278    0.0418 C.3       1 <0>         0.0763
     31 C23        -5.9610   -0.8026    0.0413 C.3       1 <0>        -0.0791
     32 C24        -7.2237    0.0197    0.0606 C.ar      1 <0>        -0.0842
     33 C25        -7.7901    0.3884    1.2665 C.ar      1 <0>        -0.1133
     34 C26        -8.9484    1.1426    1.2842 C.ar      1 <0>        -0.1187
     35 C27        -9.5401    1.5286    0.0959 C.ar      1 <0>        -0.1204
     36 C28        -8.9732    1.1607   -1.1100 C.ar      1 <0>        -0.1182
     37 C29        -7.8125    0.4101   -1.1276 C.ar      1 <0>        -0.1123
     38 H3          1.0042    1.8801    0.0026 H         1 <0>         0.0635
     39 H4         -0.5455    1.8639   -0.8728 H         1 <0>         0.1019
     40 H5         -0.5286    1.8543    0.9071 H         1 <0>         0.1036
     41 H6          2.0002   -0.2028   -0.2984 H         1 <0>         0.4217
     42 H7          3.1037   -2.9617   -0.1104 H         1 <0>         0.1040
     43 H8          3.2363   -1.7420    1.1785 H         1 <0>         0.0986
     44 H9          2.0082   -5.1809    0.3805 H         1 <0>         0.1039
     45 H10         1.3246   -5.4771    1.9989 H         1 <0>         0.1043
     46 H11         3.9165   -3.8420    4.2596 H         1 <0>         0.1343
     47 H12         6.1414   -4.9205    4.4296 H         1 <0>         0.1355
     48 H13         7.1396   -5.8992    2.2549 H         1 <0>         0.1867
     49 H14         0.2012   -1.7251   -2.2895 H         1 <0>         0.1123
     50 H15        -0.3312   -2.5002   -4.5639 H         1 <0>         0.1227
     51 H16        -2.3352   -3.8736   -4.9606 H         1 <0>         0.1250
     52 H17        -3.2664   -3.7051   -0.7929 H         1 <0>         0.1294
     53 H18        -3.8831   -5.5823   -3.0440 H         1 <0>         0.3897
     54 H19        -4.7633    0.7468    0.9388 H         1 <0>         0.0674
     55 H20        -4.7776    0.7665   -0.8410 H         1 <0>         0.0673
     56 H21        -5.9441   -1.4216   -0.8558 H         1 <0>         0.0858
     57 H22        -5.9298   -1.4413    0.9240 H         1 <0>         0.0842
     58 H23        -7.3278    0.0868    2.1948 H         1 <0>         0.1227
     59 H24        -9.3913    1.4301    2.2263 H         1 <0>         0.1231
     60 H25       -10.4454    2.1173    0.1098 H         1 <0>         0.1222
     61 H26        -9.4356    1.4620   -2.0383 H         1 <0>         0.1232
     62 H27        -7.3676    0.1258   -2.0698 H         1 <0>         0.1230
@<TRIPOS>BOND
     1    1    2 1
     2    1   38 1
     3    1   39 1
     4    1   40 1
     5    2    8 1
     6    2    3 2
     7    3    4 1
     8    3   27 1
     9    4    5 1
    10    4    6 1
    11    4   20 1
    12    6   13 1
    13    6    7 2
    14    7    8 1
    15    7    9 1
    16    8   41 1
    17    9   10 1
    18    9   42 1
    19    9   43 1
    20   10   11 1
    21   10   12 1
    22   10   15 1
    23   12   13 1
    24   12   44 1
    25   12   45 1
    26   13   14 2
    27   15   19 1
    28   15   16 2
    29   16   17 1
    30   16   46 1
    31   17   18 2
    32   17   47 1
    33   18   19 1
    34   18   48 1
    35   20   25 ar
    36   20   21 ar
    37   21   22 ar
    38   21   49 1
    39   22   23 ar
    40   22   50 1
    41   23   24 ar
    42   23   51 1
    43   24   25 ar
    44   24   26 1
    45   25   52 1
    46   26   53 1
    47   27   28 2
    48   27   29 1
    49   29   30 1
    50   30   31 1
    51   30   54 1
    52   30   55 1
    53   31   32 1
    54   31   56 1
    55   31   57 1
    56   32   37 ar
    57   32   33 ar
    58   33   34 ar
    59   33   58 1
    60   34   35 ar
    61   34   59 1
    62   35   36 ar
    63   35   60 1
    64   36   37 ar
    65   36   61 1
    66   37   62 1
@<TRIPOS>MOLECULE
ZINC03655627
   63    66     0     0     0
SMALL
USER_CHARGES
2-(2-isopropyl-5-methyl-phenoxy)-N-[2-(4-methylbenzoyl)benzofuran-3-yl]-propanamide
@<TRIPOS>ATOM
      1 C1         -4.3939   14.4176    5.9050 C.3       1 <0>        -0.1229
      2 C2         -4.2429   13.1845    5.0520 C.ar      1 <0>        -0.0484
      3 C3         -3.2189   13.1099    4.1243 C.ar      1 <0>        -0.1371
      4 C4         -3.0750   11.9840    3.3403 C.ar      1 <0>        -0.0514
      5 C5         -3.9656   10.9188    3.4841 C.ar      1 <0>        -0.1742
      6 C6         -4.9998   11.0029    4.4178 C.ar      1 <0>        -0.0625
      7 C7         -5.1290   12.1321    5.1995 C.ar      1 <0>        -0.1353
      8 C8         -3.8176    9.7085    2.6464 C.2       1 <0>         0.4777
      9 O1         -2.8480    9.5859    1.9193 O.2       1 <0>        -0.4532
     10 C9         -4.8033    8.6925    2.6897 C.2       1 <0>        -0.0943
     11 C10        -4.7181    7.4681    2.0556 C.2       1 <0>         0.1808
     12 C11        -5.9636    6.7641    2.3815 C.ar      1 <0>        -0.1485
     13 C12        -6.4781    5.5063    2.0623 C.ar      1 <0>        -0.0234
     14 C13        -7.7013    5.1320    2.5435 C.ar      1 <0>        -0.1491
     15 C14        -8.4313    5.9927    3.3514 C.ar      1 <0>        -0.0637
     16 C15        -7.9380    7.2364    3.6820 C.ar      1 <0>        -0.1251
     17 C16        -6.6954    7.6384    3.2042 C.ar      1 <0>         0.0897
     18 O2         -5.9757    8.7677    3.3582 O.3       1 <0>        -0.1666
     19 N1         -3.6735    7.0027    1.2686 N.am      1 <0>        -0.6349
     20 C17        -3.3414    5.6967    1.2929 C.2       1 <0>         0.5162
     21 O3         -4.0165    4.9110    1.9236 O.2       1 <0>        -0.4790
     22 C18        -2.1312    5.2126    0.5364 C.3       1 <0>         0.0701
     23 H1         -1.2416    5.7176    0.9127 H         1 <0>         0.1096
     24 C19        -2.3026    5.5227   -0.9520 C.3       1 <0>        -0.1757
     25 O4         -1.9901    3.8020    0.7159 O.3       1 <0>        -0.2800
     26 C20        -0.7252    3.3053    0.7299 C.ar      1 <0>         0.1310
     27 C21         0.3519    4.1397    0.4673 C.ar      1 <0>        -0.2108
     28 C22         1.6366    3.6326    0.4825 C.ar      1 <0>        -0.0493
     29 C23         1.8498    2.2944    0.7586 C.ar      1 <0>        -0.1521
     30 C24         0.7783    1.4610    1.0201 C.ar      1 <0>        -0.0734
     31 C25        -0.5091    1.9622    1.0009 C.ar      1 <0>        -0.1040
     32 C26        -1.6771    1.0518    1.2799 C.3       1 <0>        -0.0531
     33 C27        -1.7041   -0.0748    0.2451 C.3       1 <0>        -0.1420
     34 C28        -1.5344    0.4539    2.6810 C.3       1 <0>        -0.1421
     35 C29         2.8069    4.5382    0.1974 C.3       1 <0>        -0.1176
     36 H2         -5.0441   15.1317    5.3996 H         1 <0>         0.0773
     37 H3         -4.8316   14.1439    6.8650 H         1 <0>         0.0712
     38 H4         -3.4152   14.8692    6.0674 H         1 <0>         0.0711
     39 H5         -2.5305   13.9348    4.0141 H         1 <0>         0.1307
     40 H6         -2.2750   11.9267    2.6171 H         1 <0>         0.1353
     41 H7         -5.6946   10.1838    4.5310 H         1 <0>         0.1446
     42 H8         -5.9259   12.1965    5.9256 H         1 <0>         0.1303
     43 H9         -5.9138    4.8333    1.4337 H         1 <0>         0.1421
     44 H10        -8.1024    4.1610    2.2934 H         1 <0>         0.1339
     45 H11        -9.3968    5.6846    3.7247 H         1 <0>         0.1402
     46 H12        -8.5156    7.8977    4.3109 H         1 <0>         0.1389
     47 H13        -3.1826    7.6174    0.7011 H         1 <0>         0.4255
     48 H14        -3.1922    5.0178   -1.3283 H         1 <0>         0.0785
     49 H15        -2.4102    6.5987   -1.0889 H         1 <0>         0.0798
     50 H16        -1.4273    5.1726   -1.4991 H         1 <0>         0.0827
     51 H17         0.1859    5.1847    0.2509 H         1 <0>         0.1283
     52 H18         2.8550    1.8998    0.7697 H         1 <0>         0.1243
     53 H19         0.9473    0.4162    1.2351 H         1 <0>         0.1296
     54 H20        -2.6043    1.6218    1.2208 H         1 <0>         0.0871
     55 H21        -0.7769   -0.6448    0.3042 H         1 <0>         0.0549
     56 H22        -2.5489   -0.7334    0.4468 H         1 <0>         0.0580
     57 H23        -1.8057    0.3511   -0.7531 H         1 <0>         0.0541
     58 H24        -1.5152    1.2565    3.4183 H         1 <0>         0.0543
     59 H25        -2.3793   -0.2046    2.8828 H         1 <0>         0.0581
     60 H26        -0.6072   -0.1161    2.7402 H         1 <0>         0.0545
     61 H27         3.0143    4.5380   -0.8727 H         1 <0>         0.0735
     62 H28         2.5695    5.5516    0.5213 H         1 <0>         0.0663
     63 H29         3.6834    4.1801    0.7374 H         1 <0>         0.0696
@<TRIPOS>BOND
     1    1    2 1
     2    1   36 1
     3    1   37 1
     4    1   38 1
     5    2    7 ar
     6    2    3 ar
     7    3    4 ar
     8    3   39 1
     9    4    5 ar
    10    4   40 1
    11    5    6 ar
    12    5    8 1
    13    6    7 ar
    14    6   41 1
    15    7   42 1
    16    8    9 2
    17    8   10 1
    18   10   18 1
    19   10   11 2
    20   11   12 1
    21   11   19 1
    22   12   17 ar
    23   12   13 ar
    24   13   14 ar
    25   13   43 1
    26   14   15 ar
    27   14   44 1
    28   15   16 ar
    29   15   45 1
    30   16   17 ar
    31   16   46 1
    32   17   18 1
    33   19   20 am
    34   19   47 1
    35   20   21 2
    36   20   22 1
    37   22   23 1
    38   22   24 1
    39   22   25 1
    40   24   48 1
    41   24   49 1
    42   24   50 1
    43   25   26 1
    44   26   31 ar
    45   26   27 ar
    46   27   28 ar
    47   27   51 1
    48   28   29 ar
    49   28   35 1
    50   29   30 ar
    51   29   52 1
    52   30   31 ar
    53   30   53 1
    54   31   32 1
    55   32   33 1
    56   32   34 1
    57   32   54 1
    58   33   55 1
    59   33   56 1
    60   33   57 1
    61   34   58 1
    62   34   59 1
    63   34   60 1
    64   35   61 1
    65   35   62 1
    66   35   63 1
@<TRIPOS>MOLECULE
ZINC02927422
   67    70     0     0     0
SMALL
USER_CHARGES
sec-butyl (4S,7S)-4-(4-ethoxyphenyl)-2-methyl-5-oxo-7-phenyl-4,6,7,8-tetrahydro-1H-quinoline-3-carboxylate
@<TRIPOS>ATOM
      1 C1         10.5785    6.2576    0.8015 C.3       1 <0>        -0.1557
      2 C2         10.5824    7.7258    0.3710 C.3       1 <0>        -0.1199
      3 C3          9.7657    7.8829   -0.9132 C.3       1 <0>         0.0849
      4 H1         10.0929    7.1693   -1.6837 H         1 <0>         0.0823
      5 C4          9.8721    9.3253   -1.4121 C.3       1 <0>        -0.1699
      6 O1          8.3967    7.5702   -0.6483 O.3       1 <0>        -0.3393
      7 C5          7.6779    7.0543   -1.6673 C.2       1 <0>         0.5216
      8 O2          8.2008    6.8751   -2.7513 O.2       1 <0>        -0.5269
      9 C6          6.3165    6.7217   -1.4751 C.2       1 <0>        -0.2538
     10 C7          5.5816    6.3190   -2.5261 C.2       1 <0>         0.2331
     11 N1          4.2657    5.9863   -2.3644 N.pl3     1 <0>        -0.6445
     12 C8          3.7721    5.6720   -1.1267 C.2       1 <0>         0.2129
     13 C9          4.4339    6.0438   -0.0104 C.2       1 <0>        -0.2707
     14 C10         5.7202    6.8256   -0.1021 C.3       1 <0>         0.0862
     15 H2          6.4384    6.4082    0.6190 H         1 <0>         0.0906
     16 C11         5.4420    8.2740    0.2071 C.ar      1 <0>        -0.0958
     17 C12         4.5585    8.9903   -0.5791 C.ar      1 <0>        -0.0703
     18 C13         4.2975   10.3166   -0.2943 C.ar      1 <0>        -0.2128
     19 C14         4.9314   10.9330    0.7748 C.ar      1 <0>         0.1258
     20 C15         5.8218   10.2137    1.5587 C.ar      1 <0>        -0.1530
     21 C16         6.0751    8.8861    1.2732 C.ar      1 <0>        -0.0483
     22 O3          4.6802   12.2391    1.0539 O.3       1 <0>        -0.3176
     23 C17         3.7523   12.9172    0.2046 C.3       1 <0>         0.0543
     24 C18         3.5992   14.3663    0.6709 C.3       1 <0>        -0.1548
     25 C19         3.9471    5.7121    1.2661 C.2       1 <0>         0.4024
     26 O4          4.5620    6.0708    2.2507 O.2       1 <0>        -0.4605
     27 C20         2.6789    4.9207    1.4351 C.3       1 <0>        -0.1606
     28 C21         2.4853    4.0211    0.2099 C.3       1 <0>        -0.0342
     29 H3          3.2896    3.2731    0.1492 H         1 <0>         0.0919
     30 C22         2.4783    4.9007   -1.0423 C.3       1 <0>        -0.0894
     31 C23         1.1729    3.2889    0.3218 C.ar      1 <0>        -0.0828
     32 C24         1.1506    1.9067    0.3238 C.ar      1 <0>        -0.1117
     33 C25        -0.0532    1.2351    0.4268 C.ar      1 <0>        -0.1168
     34 C26        -1.2352    1.9456    0.5221 C.ar      1 <0>        -0.1192
     35 C27        -1.2125    3.3278    0.5244 C.ar      1 <0>        -0.1168
     36 C28        -0.0086    3.9994    0.4219 C.ar      1 <0>        -0.1142
     37 C29         6.2126    6.2338   -3.8919 C.3       1 <0>        -0.1169
     38 H4         11.1657    6.1447    1.7248 H         1 <0>         0.0586
     39 H5         11.0233    5.6412    0.0064 H         1 <0>         0.0523
     40 H6          9.5437    5.9314    0.9828 H         1 <0>         0.0601
     41 H7         10.1376    8.3422    1.1661 H         1 <0>         0.0763
     42 H8         11.6172    8.0520    0.1897 H         1 <0>         0.0816
     43 H9          9.2849    9.4382   -2.3354 H         1 <0>         0.0594
     44 H10        10.9259    9.5659   -1.6160 H         1 <0>         0.0720
     45 H11         9.4820   10.0088   -0.6436 H         1 <0>         0.0666
     46 H12         3.5919    5.9692   -3.2337 H         1 <0>         0.4451
     47 H13         4.0687    8.5111   -1.4139 H         1 <0>         0.1109
     48 H14         3.6040   10.8744   -0.9060 H         1 <0>         0.1216
     49 H15         6.3167   10.6915    2.3913 H         1 <0>         0.1275
     50 H16         6.7684    8.3258    1.8829 H         1 <0>         0.1286
     51 H17         4.1243   12.9024   -0.8305 H         1 <0>         0.0602
     52 H18         2.7762   12.4121    0.2507 H         1 <0>         0.0603
     53 H19         2.8850   14.8883    0.0172 H         1 <0>         0.0786
     54 H20         4.5753   14.8714    0.6248 H         1 <0>         0.0670
     55 H21         3.2273   14.3810    1.7060 H         1 <0>         0.0672
     56 H22         2.7508    4.3021    2.3418 H         1 <0>         0.1000
     57 H23         1.8264    5.6096    1.5279 H         1 <0>         0.1024
     58 H24         1.6346    5.6046   -0.9897 H         1 <0>         0.1016
     59 H25         2.3710    4.2658   -1.9342 H         1 <0>         0.0945
     60 H26         2.0736    1.3516    0.2452 H         1 <0>         0.1228
     61 H27        -0.0707    0.1553    0.4285 H         1 <0>         0.1233
     62 H28        -2.1761    1.4209    0.5981 H         1 <0>         0.1223
     63 H29        -2.1355    3.8829    0.6030 H         1 <0>         0.1229
     64 H30         0.0089    5.0793    0.4203 H         1 <0>         0.1219
     65 H31         5.4643    5.8887   -4.6206 H         1 <0>         0.0623
     66 H32         7.0522    5.5237   -3.8642 H         1 <0>         0.1057
     67 H33         6.5818    7.2268   -4.1878 H         1 <0>         0.0969
@<TRIPOS>BOND
     1    1    2 1
     2    1   38 1
     3    1   39 1
     4    1   40 1
     5    2    3 1
     6    2   41 1
     7    2   42 1
     8    3    4 1
     9    3    5 1
    10    3    6 1
    11    5   43 1
    12    5   44 1
    13    5   45 1
    14    6    7 1
    15    7    8 2
    16    7    9 1
    17    9   14 1
    18    9   10 2
    19   10   11 1
    20   10   37 1
    21   11   12 1
    22   11   46 1
    23   12   30 1
    24   12   13 2
    25   13   14 1
    26   13   25 1
    27   14   15 1
    28   14   16 1
    29   16   21 ar
    30   16   17 ar
    31   17   18 ar
    32   17   47 1
    33   18   19 ar
    34   18   48 1
    35   19   20 ar
    36   19   22 1
    37   20   21 ar
    38   20   49 1
    39   21   50 1
    40   22   23 1
    41   23   24 1
    42   23   51 1
    43   23   52 1
    44   24   53 1
    45   24   54 1
    46   24   55 1
    47   25   26 2
    48   25   27 1
    49   27   28 1
    50   27   56 1
    51   27   57 1
    52   28   29 1
    53   28   30 1
    54   28   31 1
    55   30   58 1
    56   30   59 1
    57   31   36 ar
    58   31   32 ar
    59   32   33 ar
    60   32   60 1
    61   33   34 ar
    62   33   61 1
    63   34   35 ar
    64   34   62 1
    65   35   36 ar
    66   35   63 1
    67   36   64 1
    68   37   65 1
    69   37   66 1
    70   37   67 1
@<TRIPOS>MOLECULE
ZINC33025956
   66    69     0     0     0
SMALL
USER_CHARGES
4-butyl-N-[2-[(8-methyl-4-oxo-pyrido[1,2-a]pyrimidin-2-yl)methylsulfanyl]phenyl]cyclohexanecarboxamide
@<TRIPOS>ATOM
      1 C1        -10.3863    5.3149    3.8091 C.3       1 <0>        -0.1548
      2 C2         -9.1379    6.1592    4.0726 C.3       1 <0>        -0.1266
      3 C3         -8.0648    5.2908    4.7323 C.3       1 <0>        -0.1211
      4 C4         -6.8163    6.1351    4.9958 C.3       1 <0>        -0.1153
      5 C5         -5.7432    5.2667    5.6555 C.3       1 <0>        -0.0852
      6 C6         -4.5429    6.1375    6.0321 C.3       1 <0>        -0.1298
      7 C7         -3.4699    5.2691    6.6919 C.3       1 <0>        -0.0980
      8 C8         -3.0231    4.1800    5.7145 C.3       1 <0>        -0.1061
      9 C9         -4.2234    3.3092    5.3378 C.3       1 <0>        -0.1124
     10 C10        -5.2965    4.1776    4.6781 C.3       1 <0>        -0.1191
     11 C11        -2.4578    4.8204    4.4729 C.2       1 <0>         0.5243
     12 O1         -2.4163    6.0291    4.3791 O.2       1 <0>        -0.5125
     13 N1         -1.9984    4.0502    3.4669 N.am      1 <0>        -0.6807
     14 C12        -1.3677    4.6412    2.3637 C.ar      1 <0>         0.1803
     15 C13        -0.7560    5.8787    2.4931 C.ar      1 <0>        -0.1184
     16 C14        -0.1352    6.4605    1.4034 C.ar      1 <0>        -0.0994
     17 C15        -0.1209    5.8115    0.1823 C.ar      1 <0>        -0.1212
     18 C16        -0.7234    4.5753    0.0449 C.ar      1 <0>        -0.1120
     19 C17        -1.3539    3.9864    1.1319 C.ar      1 <0>        -0.1239
     20 S1         -2.1284    2.4132    0.9587 S.3       1 <0>        -0.0870
     21 C18        -1.8526    1.9775   -0.7805 C.3       1 <0>        -0.0625
     22 C19        -2.4737    0.6345   -1.0665 C.2       1 <0>         0.2254
     23 C20        -3.6545    0.5580   -1.7790 C.2       1 <0>        -0.3158
     24 C21        -4.2119   -0.7006   -2.0325 C.2       1 <0>         0.5118
     25 O2         -5.2544   -0.8022   -2.6597 O.2       1 <0>        -0.5266
     26 N2         -3.5782   -1.8008   -1.5729 N.am      1 <0>        -0.4310
     27 C22        -4.1079   -3.0325   -1.8114 C.2       1 <0>         0.1026
     28 C23        -3.4917   -4.1486   -1.3616 C.2       1 <0>        -0.1634
     29 C24        -2.2939   -4.0496   -0.6399 C.2       1 <0>         0.0053
     30 C25        -1.7557   -2.8216   -0.3956 C.2       1 <0>        -0.1442
     31 C26        -2.4115   -1.6718   -0.8721 C.2       1 <0>         0.4017
     32 N3         -1.8842   -0.4711   -0.6393 N.2       1 <0>        -0.5351
     33 C27        -1.6063   -5.2928   -0.1372 C.3       1 <0>        -0.1282
     34 H1        -11.1578    5.9393    3.3348 H         1 <0>         0.0533
     35 H2        -10.7691    4.9193    4.7614 H         1 <0>         0.0532
     36 H3        -10.1295    4.4791    3.1416 H         1 <0>         0.0532
     37 H4         -8.7551    6.5548    3.1203 H         1 <0>         0.0601
     38 H5         -9.3947    6.9950    4.7401 H         1 <0>         0.0602
     39 H6         -8.4476    4.8952    5.6846 H         1 <0>         0.0600
     40 H7         -7.8080    4.4550    4.0649 H         1 <0>         0.0626
     41 H8         -6.4335    6.5307    4.0434 H         1 <0>         0.0607
     42 H9         -7.0730    6.9709    5.6633 H         1 <0>         0.0615
     43 H10        -6.1558    4.7993    6.5618 H         1 <0>         0.0677
     44 H11        -4.1303    6.6048    5.1258 H         1 <0>         0.0913
     45 H12        -4.8640    6.9206    6.7347 H         1 <0>         0.0595
     46 H13        -2.6070    5.8952    6.9628 H         1 <0>         0.0692
     47 H14        -3.8826    4.8017    7.5981 H         1 <0>         0.0699
     48 H15        -2.2416    3.5596    6.1775 H         1 <0>         0.1001
     49 H16        -3.9022    2.5263    4.6351 H         1 <0>         0.0653
     50 H17        -4.6360    2.8417    6.2440 H         1 <0>         0.0789
     51 H18        -6.1595    3.5515    4.4074 H         1 <0>         0.0688
     52 H19        -4.8839    4.6450    3.7718 H         1 <0>         0.0609
     53 H20        -2.1185    2.9577    3.5117 H         1 <0>         0.4329
     54 H21        -0.7648    6.3885    3.4452 H         1 <0>         0.1502
     55 H22         0.3405    7.4246    1.5062 H         1 <0>         0.1282
     56 H23         0.3659    6.2703   -0.6656 H         1 <0>         0.1265
     57 H24        -0.7067    4.0694   -0.9091 H         1 <0>         0.1249
     58 H25        -2.3128    2.7394   -1.4268 H         1 <0>         0.1136
     59 H26        -0.7718    1.9317   -0.9801 H         1 <0>         0.1167
     60 H27        -4.1401    1.4549   -2.1344 H         1 <0>         0.1602
     61 H28        -5.0305   -3.1186   -2.3663 H         1 <0>         0.1842
     62 H29        -3.9231   -5.1188   -1.5589 H         1 <0>         0.1617
     63 H30        -0.8336   -2.7319    0.1595 H         1 <0>         0.1679
     64 H31        -0.6892   -5.0122    0.4015 H         1 <0>         0.0800
     65 H32        -1.3480   -5.9389   -0.9892 H         1 <0>         0.0877
     66 H33        -2.2798   -5.8347    0.5430 H         1 <0>         0.0878
@<TRIPOS>BOND
     1    1    2 1
     2    1   34 1
     3    1   35 1
     4    1   36 1
     5    2    3 1
     6    2   37 1
     7    2   38 1
     8    3    4 1
     9    3   39 1
    10    3   40 1
    11    4    5 1
    12    4   41 1
    13    4   42 1
    14    5   10 1
    15    5    6 1
    16    5   43 1
    17    6    7 1
    18    6   44 1
    19    6   45 1
    20    7    8 1
    21    7   46 1
    22    7   47 1
    23    8    9 1
    24    8   11 1
    25    8   48 1
    26    9   10 1
    27    9   49 1
    28    9   50 1
    29   10   51 1
    30   10   52 1
    31   11   12 2
    32   11   13 am
    33   13   14 1
    34   13   53 1
    35   14   19 ar
    36   14   15 ar
    37   15   16 ar
    38   15   54 1
    39   16   17 ar
    40   16   55 1
    41   17   18 ar
    42   17   56 1
    43   18   19 ar
    44   18   57 1
    45   19   20 1
    46   20   21 1
    47   21   22 1
    48   21   58 1
    49   21   59 1
    50   22   32 1
    51   22   23 2
    52   23   24 1
    53   23   60 1
    54   24   25 2
    55   24   26 am
    56   26   31 1
    57   26   27 1
    58   27   28 2
    59   27   61 1
    60   28   29 1
    61   28   62 1
    62   29   30 2
    63   29   33 1
    64   30   31 1
    65   30   63 1
    66   31   32 2
    67   33   64 1
    68   33   65 1
    69   33   66 1
@<TRIPOS>MOLECULE
ZINC36494593
   76    78     0     0     0
SMALL
USER_CHARGES

@<TRIPOS>ATOM
      1 C1         -3.7081   -2.9414   -4.2548 C.3       1 <0>        -0.1174
      2 C2         -2.4822   -3.4915   -3.5724 C.ar      1 <0>        -0.0771
      3 C3         -1.3555   -3.7941   -4.3140 C.ar      1 <0>        -0.1188
      4 C4         -0.2310   -4.2986   -3.6881 C.ar      1 <0>        -0.1032
      5 C5         -0.2330   -4.5002   -2.3205 C.ar      1 <0>        -0.1129
      6 C6         -1.3593   -4.1967   -1.5788 C.ar      1 <0>        -0.0915
      7 C7         -2.4824   -3.6881   -2.2042 C.ar      1 <0>        -0.1087
      8 C8          0.9926   -5.0512   -1.6383 C.3       1 <0>         0.1611
      9 H1          1.6537   -5.4956   -2.3823 H         1 <0>         0.1317
     10 C9          1.7149   -3.9366   -0.9262 C.2       1 <0>         0.5068
     11 O1          1.8799   -3.9905    0.2741 O.2       1 <0>        -0.5230
     12 N1          2.1776   -2.8800   -1.6232 N.am      1 <0>        -0.7103
     13 C10         2.8799   -1.7965   -0.9310 C.3       1 <0>         0.1714
     14 C11         1.8596   -0.8722   -0.2635 C.3       1 <0>        -0.1567
     15 C12         3.8059   -2.3875    0.1340 C.3       1 <0>        -0.1602
     16 C13         3.7074   -0.9984   -1.9404 C.3       1 <0>        -0.1163
     17 C14         4.0558   -1.8907   -3.1334 C.3       1 <0>        -0.0685
     18 C15         2.8548   -1.9712   -4.0779 C.3       1 <0>        -0.1593
     19 C16         5.2531   -1.2994   -3.8802 C.3       1 <0>        -0.1407
     20 C17         4.4077   -3.2938   -2.6352 C.3       1 <0>        -0.1950
     21 N2          0.5932   -6.0730   -0.6674 N.am      1 <0>        -0.5853
     22 C18        -0.2070   -5.6996    0.5016 C.3       1 <0>         0.1838
     23 C19        -1.5660   -6.3439    0.4066 C.2       1 <0>        -0.0495
     24 C20        -1.9868   -7.4020    1.1228 C.2       1 <0>        -0.1921
     25 C21        -3.3141   -7.6700    0.7163 C.2       1 <0>        -0.2148
     26 C22        -3.6251   -6.7598   -0.2240 C.2       1 <0>        -0.0347
     27 O2         -2.5645   -5.9556   -0.4033 O.3       1 <0>        -0.1557
     28 C23         0.9619   -7.3564   -0.8496 C.2       1 <0>         0.5305
     29 O3          1.6410   -7.6622   -1.8068 O.2       1 <0>        -0.5317
     30 C24         0.5304   -8.4116    0.1360 C.3       1 <0>        -0.1278
     31 C25         1.2550   -8.1941    1.4659 C.3       1 <0>        -0.1181
     32 C26         0.8169   -9.2653    2.4665 C.3       1 <0>        -0.1179
     33 C27         1.1652  -10.6499    1.9165 C.3       1 <0>        -0.1218
     34 C28         0.4406  -10.8675    0.5866 C.3       1 <0>        -0.1189
     35 C29         0.8787   -9.7962   -0.4140 C.3       1 <0>        -0.0980
     36 H2         -3.6513   -1.8532   -4.2819 H         1 <0>         0.0718
     37 H3         -3.7616   -3.3279   -5.2726 H         1 <0>         0.0671
     38 H4         -4.5979   -3.2452   -3.7035 H         1 <0>         0.0666
     39 H5         -1.3539   -3.6366   -5.3825 H         1 <0>         0.1244
     40 H6          0.6490   -4.5357   -4.2676 H         1 <0>         0.1222
     41 H7         -1.3610   -4.3545   -0.5104 H         1 <0>         0.1344
     42 H8         -3.3611   -3.4475   -1.6242 H         1 <0>         0.1213
     43 H9          2.0457   -2.8369   -2.5832 H         1 <0>         0.4087
     44 H10         1.2123   -1.4571    0.3899 H         1 <0>         0.0631
     45 H11         2.3827   -0.1177    0.3240 H         1 <0>         0.0670
     46 H12         1.2570   -0.3832   -1.0289 H         1 <0>         0.0557
     47 H13         4.3193   -3.2583   -0.2738 H         1 <0>         0.0626
     48 H14         4.5403   -1.6395    0.4325 H         1 <0>         0.0556
     49 H15         3.2178   -2.6859    1.0018 H         1 <0>         0.0846
     50 H16         3.1309   -0.1398   -2.2849 H         1 <0>         0.0719
     51 H17         4.6254   -0.6525   -1.4651 H         1 <0>         0.0801
     52 H18         2.1684   -1.1520   -3.8635 H         1 <0>         0.0634
     53 H19         3.1983   -1.8968   -5.1097 H         1 <0>         0.0685
     54 H20         2.3419   -2.9221   -3.9333 H         1 <0>         0.0575
     55 H21         6.1087   -1.2420   -3.2073 H         1 <0>         0.0556
     56 H22         5.5012   -1.9351   -4.7301 H         1 <0>         0.0565
     57 H23         5.0023   -0.2997   -4.2351 H         1 <0>         0.0553
     58 H24         3.6326   -3.6421   -1.9527 H         1 <0>         0.1013
     59 H25         4.4768   -3.9741   -3.4841 H         1 <0>         0.0494
     60 H26         5.3646   -3.2649   -2.1140 H         1 <0>         0.0534
     61 H27         0.2937   -6.0395    1.4082 H         1 <0>         0.1191
     62 H28        -0.3201   -4.6160    0.5335 H         1 <0>         0.1107
     63 H29        -1.4194   -7.9432    1.8654 H         1 <0>         0.1551
     64 H30        -3.9552   -8.4552    1.0889 H         1 <0>         0.1492
     65 H31        -4.5689   -6.6857   -0.7437 H         1 <0>         0.2003
     66 H32        -0.5460   -8.3434    0.2933 H         1 <0>         0.1215
     67 H33         2.3314   -8.2623    1.3086 H         1 <0>         0.0704
     68 H34         1.0068   -7.2077    1.8577 H         1 <0>         0.0741
     69 H35         1.3331   -9.1104    3.4140 H         1 <0>         0.0686
     70 H36        -0.2596   -9.1971    2.6238 H         1 <0>         0.0640
     71 H37         2.2416  -10.7181    1.7592 H         1 <0>         0.0635
     72 H38         0.8531  -11.4131    2.6294 H         1 <0>         0.0637
     73 H39         0.6888  -11.8539    0.1948 H         1 <0>         0.0658
     74 H40        -0.6358  -10.7992    0.7439 H         1 <0>         0.0622
     75 H41         0.3625   -9.9512   -1.3615 H         1 <0>         0.0647
     76 H42         1.9552   -9.8644   -0.5713 H         1 <0>         0.0700
@<TRIPOS>BOND
     1    1    2 1
     2    1   36 1
     3    1   37 1
     4    1   38 1
     5    2    7 ar
     6    2    3 ar
     7    3    4 ar
     8    3   39 1
     9    4    5 ar
    10    4   40 1
    11    5    6 ar
    12    5    8 1
    13    6    7 ar
    14    6   41 1
    15    7   42 1
    16    8    9 1
    17    8   10 1
    18    8   21 1
    19   10   11 2
    20   10   12 am
    21   12   13 1
    22   12   43 1
    23   13   14 1
    24   13   15 1
    25   13   16 1
    26   14   44 1
    27   14   45 1
    28   14   46 1
    29   15   47 1
    30   15   48 1
    31   15   49 1
    32   16   17 1
    33   16   50 1
    34   16   51 1
    35   17   18 1
    36   17   19 1
    37   17   20 1
    38   18   52 1
    39   18   53 1
    40   18   54 1
    41   19   55 1
    42   19   56 1
    43   19   57 1
    44   20   58 1
    45   20   59 1
    46   20   60 1
    47   21   22 1
    48   21   28 am
    49   22   23 1
    50   22   61 1
    51   22   62 1
    52   23   27 1
    53   23   24 2
    54   24   25 1
    55   24   63 1
    56   25   26 2
    57   25   64 1
    58   26   27 1
    59   26   65 1
    60   28   29 2
    61   28   30 1
    62   30   35 1
    63   30   31 1
    64   30   66 1
    65   31   32 1
    66   31   67 1
    67   31   68 1
    68   32   33 1
    69   32   69 1
    70   32   70 1
    71   33   34 1
    72   33   71 1
    73   33   72 1
    74   34   35 1
    75   34   73 1
    76   34   74 1
    77   35   75 1
    78   35   76 1
@<TRIPOS>MOLECULE
ZINC01918376
   61    63     0     0     0
SMALL
USER_CHARGES

@<TRIPOS>ATOM
      1 C1         -0.0187    1.5258    0.0104 C.3       1 <0>        -0.1459
      2 C2          0.0021   -0.0041    0.0020 C.3       1 <0>        -0.0625
      3 C3          0.7421   -0.5109    1.2415 C.3       1 <0>        -0.1485
      4 C4         -1.4333   -0.5336    0.0129 C.3       1 <0>        -0.1453
      5 C5          0.7182   -0.4975   -1.2568 C.3       1 <0>        -0.0704
      6 H1          0.1923   -0.1373   -2.1409 H         1 <0>         0.0767
      7 C6          0.7455   -2.0286   -1.2645 C.3       1 <0>        -0.1164
      8 C7          1.2344   -2.5338   -2.6238 C.3       1 <0>        -0.0615
      9 C8          2.5464   -1.8399   -2.9589 C.2       1 <0>        -0.0582
     10 C9          2.9205   -0.7049   -2.3305 C.2       1 <0>        -0.2201
     11 S1          4.4836   -0.2891   -3.0464 S.3       1 <0>         0.3015
     12 C10         4.6468   -1.5570   -4.1353 C.2       1 <0>         0.0438
     13 C11         3.4961   -2.3097   -3.9530 C.2       1 <0>        -0.2166
     14 C12         3.2487   -3.5261   -4.7299 C.2       1 <0>         0.5308
     15 O1          2.6562   -3.4606   -5.7902 O.2       1 <0>        -0.4926
     16 O2          3.6779   -4.7192   -4.2698 O.3       1 <0>        -0.3470
     17 C13         3.4020   -5.8640   -5.0793 C.3       1 <0>         0.0288
     18 N1          5.6916   -1.7966   -5.0140 N.am      1 <0>        -0.6225
     19 C14         6.7419   -0.9532   -5.0581 C.2       1 <0>         0.5110
     20 O3          6.7728    0.0154   -4.3289 O.2       1 <0>        -0.4912
     21 C15         7.8779   -1.2137   -6.0135 C.3       1 <0>        -0.1319
     22 C16         8.9326   -0.1155   -5.8633 C.3       1 <0>        -0.1068
     23 C17        10.0859   -0.3799   -6.8333 C.3       1 <0>         0.0580
     24 O4         11.0710    0.6457   -6.6930 O.3       1 <0>        -0.3079
     25 C18        12.1694    0.5593   -7.4888 C.ar      1 <0>         0.1364
     26 C19        12.2935   -0.4880   -8.3900 C.ar      1 <0>        -0.1987
     27 C20        13.4107   -0.5742   -9.1979 C.ar      1 <0>        -0.0689
     28 C21        14.4058    0.3830   -9.1084 C.ar      1 <0>        -0.0738
     29 C22        14.2841    1.4281   -8.2098 C.ar      1 <0>        -0.0689
     30 C23        13.1653    1.5214   -7.4049 C.ar      1 <0>        -0.1391
     31 Cl1        15.8091    0.2722  -10.1244 Cl        1 <0>        -0.0688
     32 C24         2.1613    0.0280   -1.2670 C.3       1 <0>        -0.0333
     33 H2          1.0039    1.9031    0.0027 H         1 <0>         0.0578
     34 H3         -0.5459    1.8868   -0.8726 H         1 <0>         0.0553
     35 H4         -0.5289    1.8773    0.9072 H         1 <0>         0.0556
     36 H5          0.2319   -0.1594    2.1383 H         1 <0>         0.0547
     37 H6          0.7568   -1.6008    1.2356 H         1 <0>         0.0582
     38 H7          1.7647   -0.1336    1.2338 H         1 <0>         0.0589
     39 H8         -1.9605   -0.1726   -0.8702 H         1 <0>         0.0550
     40 H9         -1.4185   -1.6235    0.0069 H         1 <0>         0.0589
     41 H10        -1.9435   -0.1821    0.9097 H         1 <0>         0.0555
     42 H11         1.4182   -2.3827   -0.4834 H         1 <0>         0.0704
     43 H12        -0.2583   -2.4095   -1.0763 H         1 <0>         0.0761
     44 H13         1.3919   -3.6114   -2.5783 H         1 <0>         0.0733
     45 H14         0.4926   -2.3023   -3.3883 H         1 <0>         0.0791
     46 H15         2.3244   -5.9690   -5.2050 H         1 <0>         0.0628
     47 H16         3.8713   -5.7405   -6.0553 H         1 <0>         0.0606
     48 H17         3.7999   -6.7558   -4.5951 H         1 <0>         0.1047
     49 H18         5.6669   -2.5713   -5.5972 H         1 <0>         0.4189
     50 H19         8.3265   -2.1814   -5.7893 H         1 <0>         0.1078
     51 H20         7.4995   -1.2167   -7.0357 H         1 <0>         0.1076
     52 H21         8.4839    0.8523   -6.0875 H         1 <0>         0.0880
     53 H22         9.3110   -0.1125   -4.8411 H         1 <0>         0.0882
     54 H23        10.5345   -1.3477   -6.6091 H         1 <0>         0.0671
     55 H24         9.7075   -0.3829   -7.8555 H         1 <0>         0.0670
     56 H25        11.5173   -1.2358   -8.4596 H         1 <0>         0.1367
     57 H26        13.5077   -1.3894   -9.8996 H         1 <0>         0.1366
     58 H27        15.0620    2.1741   -8.1412 H         1 <0>         0.1416
     59 H28        13.0684    2.3400   -6.7071 H         1 <0>         0.1420
     60 H29         2.1617    1.0964   -1.4826 H         1 <0>         0.0830
     61 H30         2.6246   -0.1518   -0.2969 H         1 <0>         0.0887
@<TRIPOS>BOND
     1    1    2 1
     2    1   33 1
     3    1   34 1
     4    1   35 1
     5    2    3 1
     6    2    4 1
     7    2    5 1
     8    3   36 1
     9    3   37 1
    10    3   38 1
    11    4   39 1
    12    4   40 1
    13    4   41 1
    14    5    6 1
    15    5   32 1
    16    5    7 1
    17    7    8 1
    18    7   42 1
    19    7   43 1
    20    8    9 1
    21    8   44 1
    22    8   45 1
    23    9   13 1
    24    9   10 2
    25   10   11 1
    26   10   32 1
    27   11   12 1
    28   12   13 2
    29   12   18 1
    30   13   14 1
    31   14   15 2
    32   14   16 1
    33   16   17 1
    34   17   46 1
    35   17   47 1
    36   17   48 1
    37   18   19 am
    38   18   49 1
    39   19   20 2
    40   19   21 1
    41   21   22 1
    42   21   50 1
    43   21   51 1
    44   22   23 1
    45   22   52 1
    46   22   53 1
    47   23   24 1
    48   23   54 1
    49   23   55 1
    50   24   25 1
    51   25   30 ar
    52   25   26 ar
    53   26   27 ar
    54   26   56 1
    55   27   28 ar
    56   27   57 1
    57   28   29 ar
    58   28   31 1
    59   29   30 ar
    60   29   58 1
    61   30   59 1
    62   32   60 1
    63   32   61 1
@<TRIPOS>MOLECULE
ZINC10128536
   53    55     0     0     0
SMALL
USER_CHARGES
2-(4-chlorophenyl)sulfonylamino-N-(2,3-dimethylphenyl)-3-phenyl-propanamide
@<TRIPOS>ATOM
      1 C1         -6.3901   -4.8126   -1.6180 C.3       1 <0>        -0.1160
      2 C2         -6.1662   -3.9087   -0.4331 C.ar      1 <0>        -0.0669
      3 C3         -6.9744   -4.0207    0.6836 C.ar      1 <0>        -0.1355
      4 C4         -6.7719   -3.1936    1.7729 C.ar      1 <0>        -0.0989
      5 C5         -5.7609   -2.2527    1.7491 C.ar      1 <0>        -0.1395
      6 C6         -4.9477   -2.1378    0.6295 C.ar      1 <0>         0.1497
      7 C7         -5.1577   -2.9659   -0.4656 C.ar      1 <0>        -0.1208
      8 C8         -4.2815   -2.8404   -1.6853 C.3       1 <0>        -0.1164
      9 N1         -3.9226   -1.1857    0.6022 N.am      1 <0>        -0.6654
     10 C9         -3.9566   -0.1345    1.4450 C.2       1 <0>         0.4971
     11 O1         -4.9247    0.0436    2.1536 O.2       1 <0>        -0.4872
     12 C10        -2.7918    0.8196    1.5069 C.3       1 <0>         0.1486
     13 H1         -1.8927    0.2768    1.7990 H         1 <0>         0.1139
     14 C11        -2.5795    1.4552    0.1315 C.3       1 <0>        -0.0837
     15 C12        -1.3459    2.3202    0.1629 C.ar      1 <0>        -0.0874
     16 C13        -0.1011    1.7566   -0.0463 C.ar      1 <0>        -0.1146
     17 C14         1.0300    2.5509   -0.0231 C.ar      1 <0>        -0.1127
     18 C15         0.9168    3.9080    0.2144 C.ar      1 <0>        -0.1151
     19 C16        -0.3275    4.4708    0.4287 C.ar      1 <0>        -0.1157
     20 C17        -1.4586    3.6764    0.4056 C.ar      1 <0>        -0.1099
     21 N2         -3.0709    1.8678    2.4915 N.pl3     1 <0>        -1.0889
     22 S1         -2.5067    1.7195    4.0414 S.o2      1 <0>         2.6920
     23 O2         -2.8990    2.8984    4.7309 O.2       1 <0>        -0.9475
     24 O3         -2.8732    0.4201    4.4844 O.2       1 <0>        -0.9403
     25 C18        -0.7467    1.7459    3.9598 C.ar      1 <0>        -0.6756
     26 C19        -0.0478    0.5743    3.7364 C.ar      1 <0>        -0.0113
     27 C20         1.3324    0.5953    3.6666 C.ar      1 <0>        -0.1284
     28 C21         2.0151    1.7873    3.8318 C.ar      1 <0>         0.0223
     29 C22         1.3153    2.9586    4.0610 C.ar      1 <0>        -0.1262
     30 C23        -0.0652    2.9372    4.1248 C.ar      1 <0>         0.0020
     31 Cl1         3.7490    1.8134    3.7508 Cl        1 <0>        -0.0525
     32 H2         -7.0941   -4.3432   -2.3051 H         1 <0>         0.0712
     33 H3         -5.4426   -4.9832   -2.1290 H         1 <0>         0.0683
     34 H4         -6.7957   -5.7651   -1.2768 H         1 <0>         0.0678
     35 H5         -7.7656   -4.7555    0.7047 H         1 <0>         0.1221
     36 H6         -7.4047   -3.2835    2.6435 H         1 <0>         0.1255
     37 H7         -5.6027   -1.6074    2.6006 H         1 <0>         0.1549
     38 H8         -3.4194   -3.4995   -1.5828 H         1 <0>         0.0712
     39 H9         -4.8502   -3.1213   -2.5717 H         1 <0>         0.0750
     40 H10        -3.9411   -1.8096   -1.7836 H         1 <0>         0.0605
     41 H11        -3.1876   -1.2823   -0.0233 H         1 <0>         0.4098
     42 H12        -3.4453    2.0663   -0.1239 H         1 <0>         0.0940
     43 H13        -2.4548    0.6715   -0.6157 H         1 <0>         0.0933
     44 H14        -0.0126    0.6964   -0.2321 H         1 <0>         0.1211
     45 H15         2.0021    2.1114   -0.1910 H         1 <0>         0.1208
     46 H16         1.8005    4.5287    0.2321 H         1 <0>         0.1206
     47 H17        -0.4160    5.5311    0.6139 H         1 <0>         0.1231
     48 H18        -2.4307    4.1161    0.5727 H         1 <0>         0.1227
     49 H19        -3.5863    2.6487    2.2357 H         1 <0>         0.4261
     50 H20        -0.5806   -0.3569    3.6119 H         1 <0>         0.1456
     51 H21         1.8782   -0.3194    3.4877 H         1 <0>         0.1442
     52 H22         1.8476    3.8894    4.1896 H         1 <0>         0.1439
     53 H23        -0.6116    3.8515    4.3034 H         1 <0>         0.1496
@<TRIPOS>BOND
     1    1    2 1
     2    1   32 1
     3    1   33 1
     4    1   34 1
     5    2    7 ar
     6    2    3 ar
     7    3    4 ar
     8    3   35 1
     9    4    5 ar
    10    4   36 1
    11    5    6 ar
    12    5   37 1
    13    6    7 ar
    14    6    9 1
    15    7    8 1
    16    8   38 1
    17    8   39 1
    18    8   40 1
    19    9   10 am
    20    9   41 1
    21   10   11 2
    22   10   12 1
    23   12   13 1
    24   12   14 1
    25   12   21 1
    26   14   15 1
    27   14   42 1
    28   14   43 1
    29   15   20 ar
    30   15   16 ar
    31   16   17 ar
    32   16   44 1
    33   17   18 ar
    34   17   45 1
    35   18   19 ar
    36   18   46 1
    37   19   20 ar
    38   19   47 1
    39   20   48 1
    40   21   22 1
    41   21   49 1
    42   22   23 2
    43   22   24 2
    44   22   25 1
    45   25   30 ar
    46   25   26 ar
    47   26   27 ar
    48   26   50 1
    49   27   28 ar
    50   27   51 1
    51   28   29 ar
    52   28   31 1
    53   29   30 ar
    54   29   52 1
    55   30   53 1
@<TRIPOS>MOLECULE
ZINC15228746
   62    67     0     0     0
SMALL
USER_CHARGES
2-(1-adamantyl)-N-[[4-(2-oxochromen-3-yl)phenyl]carbamothioyl]acetamide
@<TRIPOS>ATOM
      1 C1        -12.5006    1.7280   12.0773 C.ar      1 <0>        -0.1401
      2 C2        -12.8765    3.0552   12.2281 C.ar      1 <0>        -0.0639
      3 C3        -12.6390    3.9715   11.2253 C.ar      1 <0>        -0.1330
      4 C4        -12.0168    3.5676   10.0496 C.ar      1 <0>         0.1417
      5 C5        -11.6369    2.2224    9.9003 C.ar      1 <0>        -0.1511
      6 C6        -11.8879    1.3079   10.9310 C.ar      1 <0>        -0.0559
      7 C7        -10.9813    1.7895    8.6653 C.2       1 <0>        -0.0026
      8 C8        -10.7592    2.7223    7.6880 C.2       1 <0>        -0.1614
      9 C9        -11.1785    4.1076    7.9198 C.2       1 <0>         0.5133
     10 O1        -10.9815    4.9468    7.0606 O.2       1 <0>        -0.4422
     11 O2        -11.7824    4.4607    9.0647 O.3       1 <0>        -0.2662
     12 C10       -10.0995    2.3386    6.4184 C.ar      1 <0>        -0.0312
     13 C11       -10.6712    2.6979    5.1975 C.ar      1 <0>        -0.0784
     14 C12       -10.0551    2.3401    4.0176 C.ar      1 <0>        -0.1181
     15 C13        -8.8654    1.6214    4.0433 C.ar      1 <0>         0.1299
     16 C14        -8.2964    1.2575    5.2583 C.ar      1 <0>        -0.0716
     17 C15        -8.9053    1.6178    6.4413 C.ar      1 <0>        -0.0926
     18 N1         -8.2432    1.2590    2.8452 N.pl3     1 <0>        -0.6236
     19 C16        -6.9050    1.3617    2.7229 C.2       1 <0>         0.5067
     20 S1         -5.9821    2.0675    3.9803 S.2       1 <0>        -0.4819
     21 N2         -6.2932    0.9087    1.6107 N.am      1 <0>        -0.6442
     22 C17        -4.9549    1.0114    1.4884 C.2       1 <0>         0.4832
     23 O3         -4.3014    1.5112    2.3789 O.2       1 <0>        -0.3901
     24 C18        -4.2708    0.5049    0.2447 C.3       1 <0>        -0.1292
     25 C19        -2.7635    0.7403    0.3600 C.3       1 <0>        -0.0348
     26 C20        -2.0690    0.2261   -0.9026 C.3       1 <0>        -0.1015
     27 C21        -0.5616    0.4615   -0.7873 C.3       1 <0>        -0.0839
     28 C22        -0.0205   -0.2863    0.4329 C.3       1 <0>        -0.1095
     29 C23        -0.7150    0.2279    1.6955 C.3       1 <0>        -0.0824
     30 C24        -2.2224   -0.0075    1.5802 C.3       1 <0>        -0.1148
     31 C25        -0.4432    1.7253    1.8532 C.3       1 <0>        -0.1070
     32 C26        -0.9843    2.4731    0.6330 C.3       1 <0>        -0.0826
     33 C27        -0.2898    1.9589   -0.6296 C.3       1 <0>        -0.1096
     34 C28        -2.4917    2.2377    0.5177 C.3       1 <0>        -0.1153
     35 H1        -12.6939    1.0223   12.8717 H         1 <0>         0.1362
     36 H2        -13.3601    3.3736   13.1397 H         1 <0>         0.1409
     37 H3        -12.9364    5.0018   11.3531 H         1 <0>         0.1446
     38 H4        -11.5979    0.2735   10.8198 H         1 <0>         0.1397
     39 H5        -10.6811    0.7611    8.5284 H         1 <0>         0.1554
     40 H6        -11.5958    3.2557    5.1769 H         1 <0>         0.1304
     41 H7        -10.4972    2.6180    3.0722 H         1 <0>         0.1293
     42 H8         -7.3743    0.6956    5.2754 H         1 <0>         0.1439
     43 H9         -8.4608    1.3380    7.3850 H         1 <0>         0.1316
     44 H10        -8.7746    0.9336    2.1018 H         1 <0>         0.4074
     45 H11        -6.8160    0.5089    0.8982 H         1 <0>         0.4097
     46 H12        -4.6563    1.0377   -0.6245 H         1 <0>         0.0983
     47 H13        -4.4645   -0.5618    0.1324 H         1 <0>         0.0983
     48 H14        -2.4545    0.7589   -1.7719 H         1 <0>         0.0620
     49 H15        -2.2626   -0.8406   -1.0149 H         1 <0>         0.0620
     50 H16        -0.0668    0.0952   -1.6868 H         1 <0>         0.0685
     51 H17        -0.2141   -1.3531    0.3205 H         1 <0>         0.0593
     52 H18         1.0534   -0.1186    0.5150 H         1 <0>         0.0604
     53 H19        -0.3295   -0.3049    2.5648 H         1 <0>         0.0674
     54 H20        -2.7171    0.3588    2.4797 H         1 <0>         0.0906
     55 H21        -2.4160   -1.0743    1.4679 H         1 <0>         0.0530
     56 H22        -0.9380    2.0916    2.7527 H         1 <0>         0.0659
     57 H23         0.6307    1.8930    1.9353 H         1 <0>         0.0577
     58 H24        -0.7907    3.5398    0.7453 H         1 <0>         0.0675
     59 H25         0.7841    2.1266   -0.5475 H         1 <0>         0.0604
     60 H26        -0.6753    2.4917   -1.4989 H         1 <0>         0.0594
     61 H27        -2.8772    2.7705   -0.3516 H         1 <0>         0.0531
     62 H28        -2.9865    2.6040    1.4172 H         1 <0>         0.0906
@<TRIPOS>BOND
     1    1    6 ar
     2    1    2 ar
     3    1   35 1
     4    2    3 ar
     5    2   36 1
     6    3    4 ar
     7    3   37 1
     8    4   11 1
     9    4    5 ar
    10    5    6 ar
    11    5    7 1
    12    6   38 1
    13    7    8 2
    14    7   39 1
    15    8    9 1
    16    8   12 1
    17    9   10 2
    18    9   11 1
    19   12   17 ar
    20   12   13 ar
    21   13   14 ar
    22   13   40 1
    23   14   15 ar
    24   14   41 1
    25   15   16 ar
    26   15   18 1
    27   16   17 ar
    28   16   42 1
    29   17   43 1
    30   18   19 1
    31   18   44 1
    32   19   20 2
    33   19   21 1
    34   21   22 am
    35   21   45 1
    36   22   23 2
    37   22   24 1
    38   24   25 1
    39   24   46 1
    40   24   47 1
    41   25   30 1
    42   25   34 1
    43   25   26 1
    44   26   27 1
    45   26   48 1
    46   26   49 1
    47   27   33 1
    48   27   28 1
    49   27   50 1
    50   28   29 1
    51   28   51 1
    52   28   52 1
    53   29   30 1
    54   29   31 1
    55   29   53 1
    56   30   54 1
    57   30   55 1
    58   31   32 1
    59   31   56 1
    60   31   57 1
    61   32   33 1
    62   32   34 1
    63   32   58 1
    64   33   59 1
    65   33   60 1
    66   34   61 1
    67   34   62 1
@<TRIPOS>MOLECULE
ZINC30956320
   45    46     0     0     0
SMALL
USER_CHARGES
N-[(1R)-1-[[(4-bromophenyl)methyleneamino]carbamoyl]-2-methyl-propyl]-3,4-dichloro-benzamide
@<TRIPOS>ATOM
      1 C1          5.3670    4.6367    3.5370 C.3       1 <0>        -0.1408
      2 C2          5.2490    5.6454    2.3927 C.3       1 <0>        -0.0980
      3 C3          6.4374    6.6081    2.4368 C.3       1 <0>        -0.1616
      4 C4          5.2445    4.9017    1.0557 C.3       1 <0>         0.1421
      5 H1          6.1843    4.3496    0.9076 H         1 <0>         0.1123
      6 C5          5.0493    5.8879   -0.0670 C.2       1 <0>         0.5299
      7 O1          3.9337    6.1209   -0.4826 O.2       1 <0>        -0.4970
      8 N1          6.1143    6.5109   -0.6094 N.am      1 <0>        -0.5962
      9 N2          5.9460    7.3448   -1.7226 N.2       1 <0>        -0.2172
     10 C6          6.9827    7.8495   -2.3178 C.2       1 <0>         0.1083
     11 C7          8.2971    7.1925   -2.1929 C.ar      1 <0>        -0.0840
     12 C8          9.4485    7.8330   -2.6573 C.ar      1 <0>        -0.0810
     13 C9         10.6752    7.2154   -2.5325 C.ar      1 <0>        -0.0842
     14 C10        10.7658    5.9586   -1.9586 C.ar      1 <0>        -0.0799
     15 C11         9.6279    5.3159   -1.5010 C.ar      1 <0>        -0.0807
     16 C12         8.3956    5.9246   -1.6148 C.ar      1 <0>        -0.1401
     17 Br1        12.4513    5.1162   -1.7983 Br        1 <0>        -0.0378
     18 N3          4.1522    3.9255    1.0436 N.am      1 <0>        -0.7233
     19 C13         4.3364    2.7014    1.5765 C.2       1 <0>         0.5688
     20 O2          5.4089    2.4074    2.0673 O.2       1 <0>        -0.5235
     21 C14         3.2345    1.7167    1.5643 C.ar      1 <0>        -0.1187
     22 C15         2.0014    2.0517    1.0013 C.ar      1 <0>        -0.0689
     23 C16         0.9764    1.1295    0.9933 C.ar      1 <0>        -0.1033
     24 C17         1.1675   -0.1278    1.5419 C.ar      1 <0>        -0.0079
     25 C18         2.3893   -0.4671    2.1016 C.ar      1 <0>        -0.0406
     26 C19         3.4224    0.4481    2.1156 C.ar      1 <0>        -0.0387
     27 Cl1         2.6203   -2.0454    2.7865 Cl        1 <0>        -0.0351
     28 Cl2        -0.1279   -1.2833    1.5281 Cl        1 <0>        -0.0354
     29 H2          4.5126    3.9446    3.5052 H         1 <0>         0.0547
     30 H3          5.3702    5.1714    4.4983 H         1 <0>         0.0566
     31 H4          6.3030    4.0689    3.4301 H         1 <0>         0.0706
     32 H5          4.3129    6.2132    2.4995 H         1 <0>         0.0834
     33 H6          6.3525    7.3333    1.6141 H         1 <0>         0.0570
     34 H7          7.3734    6.0402    2.3300 H         1 <0>         0.0633
     35 H8          6.4406    7.1428    3.3981 H         1 <0>         0.0726
     36 H9          7.1156    6.3647   -0.1781 H         1 <0>         0.4178
     37 H10         6.8811    8.7673   -2.9155 H         1 <0>         0.1963
     38 H11         9.3786    8.8114   -3.1092 H         1 <0>         0.1447
     39 H12        11.5667    7.7113   -2.8871 H         1 <0>         0.1413
     40 H13         9.7054    4.3357   -1.0543 H         1 <0>         0.1404
     41 H14         7.5087    5.4220   -1.2582 H         1 <0>         0.1464
     42 H15         3.1816    4.1916    0.5995 H         1 <0>         0.4330
     43 H16         1.8508    3.0316    0.5728 H         1 <0>         0.1441
     44 H17         0.0237    1.3866    0.5543 H         1 <0>         0.1524
     45 H18         4.3740    0.1835    2.5525 H         1 <0>         0.1577
@<TRIPOS>BOND
     1    1    2 1
     2    1   29 1
     3    1   30 1
     4    1   31 1
     5    2    3 1
     6    2    4 1
     7    2   32 1
     8    3   33 1
     9    3   34 1
    10    3   35 1
    11    4    5 1
    12    4    6 1
    13    4   18 1
    14    6    7 2
    15    6    8 am
    16    8    9 1
    17    8   36 1
    18    9   10 2
    19   10   11 1
    20   10   37 1
    21   11   16 ar
    22   11   12 ar
    23   12   13 ar
    24   12   38 1
    25   13   14 ar
    26   13   39 1
    27   14   15 ar
    28   14   17 1
    29   15   16 ar
    30   15   40 1
    31   16   41 1
    32   18   19 am
    33   18   42 1
    34   19   20 2
    35   19   21 1
    36   21   26 ar
    37   21   22 ar
    38   22   23 ar
    39   22   43 1
    40   23   24 ar
    41   23   44 1
    42   24   25 ar
    43   24   28 1
    44   25   26 ar
    45   25   27 1
    46   26   45 1
@<TRIPOS>MOLECULE
ZINC37546505
   64    67     0     0     0
SMALL
USER_CHARGES

@<TRIPOS>ATOM
      1 C1          0.2696    3.4383    2.0318 C.3       1 <0>        -0.1174
      2 C2          0.3859    2.0583    1.4376 C.ar      1 <0>        -0.0850
      3 C3          0.5457    1.9045    0.0729 C.ar      1 <0>        -0.1112
      4 C4          0.6523    0.6389   -0.4721 C.ar      1 <0>        -0.1159
      5 C5          0.5996   -0.4734    0.3474 C.ar      1 <0>        -0.1066
      6 C6          0.4407   -0.3197    1.7117 C.ar      1 <0>        -0.1077
      7 C7          0.3384    0.9465    2.2574 C.ar      1 <0>        -0.1017
      8 C8          0.3827   -1.5320    2.6049 C.3       1 <0>         0.1610
      9 N1          1.7357   -1.8768    3.0487 N.am      1 <0>        -0.7265
     10 C9          1.9293   -2.9342    3.8615 C.2       1 <0>         0.5196
     11 O1          0.9835   -3.6004    4.2257 O.2       1 <0>        -0.5280
     12 C10         3.3210   -3.2889    4.3180 C.3       1 <0>        -0.1213
     13 H1          3.9441   -3.5065    3.4505 H         1 <0>         0.1036
     14 C11         3.2627   -4.5191    5.2265 C.3       1 <0>        -0.0991
     15 C12         4.6789   -4.8998    5.6641 C.3       1 <0>        -0.1292
     16 C13         5.2925   -3.7417    6.4573 C.3       1 <0>         0.2016
     17 H2          4.7357   -3.5974    7.3832 H         1 <0>         0.0818
     18 N2          5.2202   -2.5205    5.6436 N.am      1 <0>        -0.6235
     19 C14         3.9196   -2.1123    5.0952 C.3       1 <0>         0.1245
     20 C15         6.3261   -1.7882    5.4044 C.2       1 <0>         0.7017
     21 O2          7.4110   -2.1831    5.7857 O.2       1 <0>        -0.5503
     22 N3          6.2293   -0.6180    4.7427 N.am      1 <0>        -0.7449
     23 C16         7.4412    0.1218    4.3820 C.3       1 <0>         0.1815
     24 C17         7.0605    1.3857    3.6548 C.ar      1 <0>        -0.1105
     25 C18         6.9275    1.3781    2.2789 C.ar      1 <0>        -0.1005
     26 C19         6.5782    2.5374    1.6119 C.ar      1 <0>        -0.1208
     27 C20         6.3615    3.7041    2.3208 C.ar      1 <0>        -0.1104
     28 C21         6.4935    3.7115    3.6968 C.ar      1 <0>        -0.1211
     29 C22         6.8386    2.5512    4.3642 C.ar      1 <0>        -0.0996
     30 C23         6.7316   -4.0548    6.7769 C.ar      1 <0>        -0.0544
     31 C24         7.5955   -4.4397    5.7687 C.ar      1 <0>        -0.0509
     32 C25         8.9155   -4.7270    6.0618 C.ar      1 <0>        -0.1251
     33 C26         9.3718   -4.6288    7.3630 C.ar      1 <0>        -0.1185
     34 C27         8.5081   -4.2430    8.3710 C.ar      1 <0>        -0.1238
     35 C28         7.1891   -3.9517    8.0772 C.ar      1 <0>        -0.1137
     36 H3          1.2625    3.8092    2.2861 H         1 <0>         0.0717
     37 H4         -0.1939    4.1080    1.3074 H         1 <0>         0.0679
     38 H5         -0.3438    3.3958    2.9318 H         1 <0>         0.0674
     39 H6          0.5869    2.7734   -0.5672 H         1 <0>         0.1233
     40 H7          0.7765    0.5188   -1.5382 H         1 <0>         0.1248
     41 H8          0.6822   -1.4624   -0.0786 H         1 <0>         0.1231
     42 H9          0.2180    1.0668    3.3239 H         1 <0>         0.1231
     43 H10        -0.2399   -1.3146    3.4727 H         1 <0>         0.0780
     44 H11        -0.0432   -2.3699    2.0529 H         1 <0>         0.0779
     45 H12         2.4921   -1.3440    2.7574 H         1 <0>         0.4004
     46 H13         2.6593   -4.2930    6.1056 H         1 <0>         0.0755
     47 H14         2.8147   -5.3509    4.6829 H         1 <0>         0.0792
     48 H15         4.6387   -5.7898    6.2921 H         1 <0>         0.0861
     49 H16         5.2896   -5.1020    4.7842 H         1 <0>         0.0729
     50 H17         4.0551   -1.2631    4.4255 H         1 <0>         0.0798
     51 H18         3.2509   -1.8346    5.9100 H         1 <0>         0.0776
     52 H19         5.3573   -0.2657    4.5054 H         1 <0>         0.3920
     53 H20         7.9947    0.3756    5.2861 H         1 <0>         0.0757
     54 H21         8.0649   -0.4955    3.7354 H         1 <0>         0.0736
     55 H22         7.0969    0.4665    1.7250 H         1 <0>         0.1228
     56 H23         6.4751    2.5316    0.5368 H         1 <0>         0.1236
     57 H24         6.0893    4.6100    1.7996 H         1 <0>         0.1231
     58 H25         6.3245    4.6232    4.2506 H         1 <0>         0.1242
     59 H26         6.9382    2.5560    5.4396 H         1 <0>         0.1236
     60 H27         7.2391   -4.5164    4.7521 H         1 <0>         0.1049
     61 H28         9.5903   -5.0284    5.2743 H         1 <0>         0.1117
     62 H29        10.4029   -4.8539    7.5921 H         1 <0>         0.1129
     63 H30         8.8644   -4.1667    9.3877 H         1 <0>         0.1140
     64 H31         6.5152   -3.6466    8.8642 H         1 <0>         0.1114
@<TRIPOS>BOND
     1    1    2 1
     2    1   36 1
     3    1   37 1
     4    1   38 1
     5    2    7 ar
     6    2    3 ar
     7    3    4 ar
     8    3   39 1
     9    4    5 ar
    10    4   40 1
    11    5    6 ar
    12    5   41 1
    13    6    7 ar
    14    6    8 1
    15    7   42 1
    16    8    9 1
    17    8   43 1
    18    8   44 1
    19    9   10 am
    20    9   45 1
    21   10   11 2
    22   10   12 1
    23   12   13 1
    24   12   19 1
    25   12   14 1
    26   14   15 1
    27   14   46 1
    28   14   47 1
    29   15   16 1
    30   15   48 1
    31   15   49 1
    32   16   17 1
    33   16   18 1
    34   16   30 1
    35   18   19 1
    36   18   20 am
    37   19   50 1
    38   19   51 1
    39   20   21 2
    40   20   22 am
    41   22   23 1
    42   22   52 1
    43   23   24 1
    44   23   53 1
    45   23   54 1
    46   24   29 ar
    47   24   25 ar
    48   25   26 ar
    49   25   55 1
    50   26   27 ar
    51   26   56 1
    52   27   28 ar
    53   27   57 1
    54   28   29 ar
    55   28   58 1
    56   29   59 1
    57   30   35 ar
    58   30   31 ar
    59   31   32 ar
    60   31   60 1
    61   32   33 ar
    62   32   61 1
    63   33   34 ar
    64   33   62 1
    65   34   35 ar
    66   34   63 1
    67   35   64 1
@<TRIPOS>MOLECULE
ZINC19630881
   43    46     0     0     0
SMALL
USER_CHARGES

@<TRIPOS>ATOM
      1 C1         -0.0455    1.3410   -0.2872 C.ar      1 <0>        -0.1152
      2 C2          1.0927    2.0828   -0.0030 C.ar      1 <0>        -0.0905
      3 C3          2.2940    1.4293    0.2006 C.ar      1 <0>        -0.0701
      4 C4          2.3395    0.0592    0.1181 C.ar      1 <0>        -0.1626
      5 C5          1.1971   -0.7246   -0.1698 C.ar      1 <0>         0.0734
      6 C6         -0.0113   -0.0156   -0.3711 C.ar      1 <0>        -0.0567
      7 N1          1.3989   -2.0560   -0.2175 N.2       1 <0>        -0.4868
      8 C7          2.5788   -2.6002   -0.0110 C.2       1 <0>         0.1825
      9 S1          3.6080   -1.1716    0.2968 S.3       1 <0>         0.0419
     10 C8          2.9568   -4.0281   -0.0289 C.ar      1 <0>        -0.0027
     11 C9          1.9943   -5.0036   -0.2985 C.ar      1 <0>        -0.0460
     12 C10         2.3497   -6.3341   -0.3145 C.ar      1 <0>        -0.0687
     13 C11         3.6658   -6.7077   -0.0625 C.ar      1 <0>         0.1595
     14 C12         4.6270   -5.7404    0.2067 C.ar      1 <0>        -0.1103
     15 C13         4.2794   -4.4057    0.2182 C.ar      1 <0>        -0.0122
     16 Cl1         5.4816   -3.1972    0.5468 Cl        1 <0>        -0.0238
     17 N2          4.0220   -8.0576   -0.0797 N.pl3     1 <0>        -0.6251
     18 C14         3.5364   -8.8705   -1.0388 C.2       1 <0>         0.5078
     19 S2          2.5989   -8.2225   -2.3163 S.2       1 <0>        -0.4699
     20 N3          3.7890  -10.1936   -0.9921 N.am      1 <0>        -0.6365
     21 C15         3.3035  -11.0065   -1.9512 C.2       1 <0>         0.5285
     22 O1          2.6367  -10.5457   -2.8598 O.2       1 <0>        -0.4118
     23 C16         3.5685  -12.3945   -1.9023 C.2       1 <0>        -0.2316
     24 C17         3.0796  -13.2131   -2.8681 C.2       1 <0>         0.0441
     25 C18         3.3448  -14.6027   -2.8191 C.2       1 <0>        -0.0296
     26 C19         2.9175  -15.5448   -3.7323 C.2       1 <0>        -0.1435
     27 C20         3.4101  -16.7816   -3.2899 C.2       1 <0>        -0.2206
     28 C21         4.1022  -16.5525   -2.1517 C.2       1 <0>        -0.0067
     29 O2          4.0657  -15.2419   -1.8742 O.3       1 <0>        -0.1660
     30 H1         -0.9832    1.8543   -0.4413 H         1 <0>         0.1345
     31 H2          1.0406    3.1598    0.0581 H         1 <0>         0.1388
     32 H3          3.1890    1.9915    0.4223 H         1 <0>         0.1335
     33 H4         -0.9175   -0.5591   -0.5942 H         1 <0>         0.1331
     34 H5          0.9721   -4.7149   -0.4940 H         1 <0>         0.1543
     35 H6          1.6054   -7.0886   -0.5226 H         1 <0>         0.1562
     36 H7          5.6478   -6.0338    0.4022 H         1 <0>         0.1471
     37 H8          4.6189   -8.4103    0.5987 H         1 <0>         0.4117
     38 H9          4.3202  -10.5607   -0.2683 H         1 <0>         0.4130
     39 H10         4.1599  -12.8033   -1.0964 H         1 <0>         0.1339
     40 H11         2.4881  -12.8044   -3.6740 H         1 <0>         0.1653
     41 H12         2.3206  -15.3653   -4.6143 H         1 <0>         0.1607
     42 H13         3.2634  -17.7383   -3.7691 H         1 <0>         0.1574
     43 H14         4.6067  -17.3041   -1.5627 H         1 <0>         0.2101
@<TRIPOS>BOND
     1    1    6 ar
     2    1    2 ar
     3    1   30 1
     4    2    3 ar
     5    2   31 1
     6    3    4 ar
     7    3   32 1
     8    4    9 1
     9    4    5 ar
    10    5    6 ar
    11    5    7 1
    12    6   33 1
    13    7    8 2
    14    8    9 1
    15    8   10 1
    16   10   15 ar
    17   10   11 ar
    18   11   12 ar
    19   11   34 1
    20   12   13 ar
    21   12   35 1
    22   13   14 ar
    23   13   17 1
    24   14   15 ar
    25   14   36 1
    26   15   16 1
    27   17   18 1
    28   17   37 1
    29   18   19 2
    30   18   20 1
    31   20   21 am
    32   20   38 1
    33   21   22 2
    34   21   23 1
    35   23   24 2
    36   23   39 1
    37   24   25 1
    38   24   40 1
    39   25   29 1
    40   25   26 2
    41   26   27 1
    42   26   41 1
    43   27   28 2
    44   27   42 1
    45   28   29 1
    46   28   43 1
@<TRIPOS>MOLECULE
ZINC09113374
   61    64     0     0     0
SMALL
USER_CHARGES
isobutyl 7-(4-chlorophenyl)-4-(4-hydroxyphenyl)-2-methyl-5-oxo-4,6,7,8-tetrahydro-1H-quinoline-3-carboxylate
@<TRIPOS>ATOM
      1 C1         -4.7463    4.2035   -0.7269 C.3       1 <0>        -0.1173
      2 C2         -3.5955    3.3133   -0.3340 C.2       1 <0>         0.2458
      3 C3         -3.7485    1.9779   -0.3505 C.3       1 <0>        -0.1292
      4 C4         -2.6242    1.0608    0.0203 C.3       1 <0>         0.0454
      5 H1         -2.5918    0.2200   -0.6726 H         1 <0>         0.1206
      6 C5         -1.2997    1.7809   -0.0127 C.2       1 <0>        -0.2713
      7 C6         -1.2496    3.1264    0.0066 C.2       1 <0>         0.1795
      8 N1         -2.3996    3.8689    0.0379 N.2       1 <0>        -0.5210
      9 C7          0.0734    3.8570   -0.0394 C.3       1 <0>        -0.0699
     10 C8          1.1489    3.0132    0.6364 C.3       1 <0>        -0.0417
     11 H2          0.8862    2.8608    1.6833 H         1 <0>         0.0913
     12 C9          1.2324    1.6590   -0.0758 C.3       1 <0>        -0.1484
     13 C10        -0.1246    1.0099   -0.0528 C.2       1 <0>         0.4005
     14 O1         -0.2068   -0.2023   -0.0742 O.2       1 <0>        -0.4591
     15 C11         2.4789    3.7161    0.5452 C.ar      1 <0>        -0.0749
     16 C12         3.0167    4.0192   -0.6917 C.ar      1 <0>        -0.1009
     17 C13         4.2337    4.6689   -0.7760 C.ar      1 <0>        -0.1064
     18 C14         4.9190    5.0059    0.3778 C.ar      1 <0>        -0.0348
     19 C15         4.3828    4.6972    1.6153 C.ar      1 <0>        -0.1070
     20 C16         3.1630    4.0525    1.6984 C.ar      1 <0>        -0.0977
     21 Cl1         6.4512    5.8151    0.2727 Cl        1 <0>        -0.0679
     22 C17        -2.8712    0.5428    1.4137 C.ar      1 <0>        -0.1034
     23 C18        -2.9325    1.4244    2.4770 C.ar      1 <0>        -0.1052
     24 C19        -3.1644    0.9527    3.7545 C.ar      1 <0>        -0.1430
     25 C20        -3.3242   -0.4083    3.9717 C.ar      1 <0>         0.1125
     26 C21        -3.2565   -1.2914    2.9039 C.ar      1 <0>        -0.1427
     27 C22        -3.0305   -0.8139    1.6275 C.ar      1 <0>        -0.0641
     28 O2         -3.5460   -0.8755    5.2284 O.3       1 <0>        -0.4990
     29 C23        -4.9933    1.4270   -0.7349 C.2       1 <0>         0.4952
     30 O3         -5.9437    2.1576   -0.9434 O.2       1 <0>        -0.5031
     31 O4         -5.1267    0.0909   -0.8705 O.3       1 <0>        -0.3352
     32 C24        -6.4120   -0.3963   -1.2614 C.3       1 <0>         0.0686
     33 C25        -6.3697   -1.9224   -1.3626 C.3       1 <0>        -0.0944
     34 C26        -6.1152   -2.5184    0.0233 C.3       1 <0>        -0.1513
     35 C27        -7.7070   -2.4351   -1.9005 C.3       1 <0>        -0.1474
     36 H3         -5.5556    4.0909   -0.0055 H         1 <0>         0.0959
     37 H4         -4.4143    5.2416   -0.7413 H         1 <0>         0.0879
     38 H5         -5.1015    3.9219   -1.7183 H         1 <0>         0.1076
     39 H6         -4.2807    2.2000    0.4665 H         1 <0>         0.1534
     40 H7         -0.0251    4.8138    0.4734 H         1 <0>         0.1008
     41 H8          0.3649    4.0294   -1.0754 H         1 <0>         0.0987
     42 H9          1.8945    1.0754    0.3943 H         1 <0>         0.0899
     43 H10         1.5485    1.8071   -1.1084 H         1 <0>         0.1044
     44 H11         2.4837    3.7522   -1.5923 H         1 <0>         0.1330
     45 H12         4.6517    4.9095   -1.7422 H         1 <0>         0.1353
     46 H13         4.9174    4.9597    2.5162 H         1 <0>         0.1350
     47 H14         2.7445    3.8111    2.6643 H         1 <0>         0.1330
     48 H15        -2.8030    2.4832    2.3081 H         1 <0>         0.1190
     49 H16        -3.2170    1.6422    4.5841 H         1 <0>         0.1302
     50 H17        -3.3809   -2.3512    3.0705 H         1 <0>         0.1326
     51 H18        -2.9779   -1.5010    0.7959 H         1 <0>         0.1339
     52 H19        -2.7393   -1.0929    5.7153 H         1 <0>         0.3933
     53 H20        -7.1534   -0.1017   -0.5188 H         1 <0>         0.0715
     54 H21        -6.6808    0.0248   -2.2302 H         1 <0>         0.0737
     55 H22        -5.5681   -2.2197   -2.0388 H         1 <0>         0.0844
     56 H23        -6.0850   -3.6057   -0.0487 H         1 <0>         0.0601
     57 H24        -5.1623   -2.1532    0.4067 H         1 <0>         0.0631
     58 H25        -6.9167   -2.2213    0.6995 H         1 <0>         0.0545
     59 H26        -7.8883   -2.0104   -2.8878 H         1 <0>         0.0593
     60 H27        -7.6769   -3.5222   -1.9725 H         1 <0>         0.0674
     61 H28        -8.5086   -2.1378   -1.2244 H         1 <0>         0.0590
@<TRIPOS>BOND
     1    1    2 1
     2    1   36 1
     3    1   37 1
     4    1   38 1
     5    2    8 2
     6    2    3 1
     7    3    4 1
     8    3   29 1
     9    3   39 1
    10    4    5 1
    11    4    6 1
    12    4   22 1
    13    6   13 1
    14    6    7 2
    15    7    9 1
    16    7    8 1
    17    9   10 1
    18    9   40 1
    19    9   41 1
    20   10   11 1
    21   10   12 1
    22   10   15 1
    23   12   13 1
    24   12   42 1
    25   12   43 1
    26   13   14 2
    27   15   20 ar
    28   15   16 ar
    29   16   17 ar
    30   16   44 1
    31   17   18 ar
    32   17   45 1
    33   18   19 ar
    34   18   21 1
    35   19   20 ar
    36   19   46 1
    37   20   47 1
    38   22   27 ar
    39   22   23 ar
    40   23   24 ar
    41   23   48 1
    42   24   25 ar
    43   24   49 1
    44   25   26 ar
    45   25   28 1
    46   26   27 ar
    47   26   50 1
    48   27   51 1
    49   28   52 1
    50   29   30 2
    51   29   31 1
    52   31   32 1
    53   32   33 1
    54   32   53 1
    55   32   54 1
    56   33   34 1
    57   33   35 1
    58   33   55 1
    59   34   56 1
    60   34   57 1
    61   34   58 1
    62   35   59 1
    63   35   60 1
    64   35   61 1
@<TRIPOS>MOLECULE
ZINC19991314
   67    71     0     0     0
SMALL
USER_CHARGES
2-(4-benzhydrylpiperazin-1-yl)-6-methyl-5-(o-tolylmethyl)-3H-pyrimidin-4-one
@<TRIPOS>ATOM
      1 C1         -8.2680   10.5746   -7.9024 C.3       1 <0>        -0.1172
      2 C2         -6.8981   11.1470   -7.6442 C.ar      1 <0>        -0.0867
      3 C3         -6.4844   12.2810   -8.3183 C.ar      1 <0>        -0.1174
      4 C4         -5.2281   12.8061   -8.0812 C.ar      1 <0>        -0.1227
      5 C5         -4.3851   12.1975   -7.1699 C.ar      1 <0>        -0.1243
      6 C6         -4.8007   11.0669   -6.4922 C.ar      1 <0>        -0.1050
      7 C7         -6.0554   10.5385   -6.7333 C.ar      1 <0>        -0.0689
      8 C8         -6.5065    9.3027   -5.9982 C.3       1 <0>        -0.0105
      9 C9         -5.4687    8.9202   -4.9745 C.2       1 <0>        -0.2840
     10 C10        -5.5763    9.3498   -3.6838 C.2       1 <0>         0.2086
     11 N1         -4.6545    9.0067   -2.7869 N.2       1 <0>        -0.5668
     12 C11        -3.6248    8.2522   -3.1158 C.2       1 <0>         0.5710
     13 N2         -3.4622    7.7996   -4.3884 N.am      1 <0>        -0.6459
     14 H1         -2.5908    7.1790   -4.6443 H         1 <0>         0.4418
     15 C12        -4.3733    8.1150   -5.3337 C.2       1 <0>         0.5404
     16 O1         -4.2456    7.7136   -6.4787 O.2       1 <0>        -0.5316
     17 N3         -2.7001    7.9231   -2.1615 N.pl3     1 <0>        -0.4814
     18 C13        -2.9863    8.6071   -0.8927 C.3       1 <0>         0.0797
     19 C14        -1.8884    8.2763    0.1210 C.3       1 <0>         0.0500
     20 N4         -1.8253    6.8208    0.3133 N.3       1 <0>        -0.5304
     21 C15        -1.5390    6.1368   -0.9555 C.3       1 <0>         0.0538
     22 C16        -2.6369    6.4676   -1.9692 C.3       1 <0>         0.0605
     23 C17        -0.8329    6.4676    1.3373 C.3       1 <0>         0.1703
     24 C18        -0.7966    4.9706    1.5064 C.ar      1 <0>        -0.0790
     25 C19         0.4124    4.3241    1.6827 C.ar      1 <0>        -0.1120
     26 C20         0.4457    2.9509    1.8383 C.ar      1 <0>        -0.1197
     27 C21        -0.7300    2.2242    1.8171 C.ar      1 <0>        -0.1172
     28 C22        -1.9386    2.8701    1.6352 C.ar      1 <0>        -0.1235
     29 C23        -1.9723    4.2438    1.4849 C.ar      1 <0>        -0.0920
     30 C24        -1.2106    7.1120    2.6462 C.ar      1 <0>        -0.0783
     31 C25        -2.5365    7.1636    3.0340 C.ar      1 <0>        -0.0894
     32 C26        -2.8824    7.7503    4.2369 C.ar      1 <0>        -0.1232
     33 C27        -1.9036    8.2944    5.0473 C.ar      1 <0>        -0.1172
     34 C28        -0.5783    8.2479    4.6568 C.ar      1 <0>        -0.1203
     35 C29        -0.2319    7.6565    3.4564 C.ar      1 <0>        -0.1123
     36 C30        -6.7407   10.2138   -3.2730 C.3       1 <0>        -0.1122
     37 H2         -8.7872   11.1900   -8.6519 H         1 <0>         0.0651
     38 H3         -8.8462   10.5710   -6.9666 H         1 <0>         0.0699
     39 H4         -8.1705    9.5450   -8.2771 H         1 <0>         0.0705
     40 H5         -7.1430   12.7566   -9.0299 H         1 <0>         0.1212
     41 H6         -4.9050   13.6922   -8.6075 H         1 <0>         0.1199
     42 H7         -3.4036   12.6081   -6.9844 H         1 <0>         0.1170
     43 H8         -4.1439   10.5940   -5.7771 H         1 <0>         0.1088
     44 H9         -7.4626    9.5050   -5.4932 H         1 <0>         0.0878
     45 H10        -6.6372    8.4776   -6.7138 H         1 <0>         0.0896
     46 H11        -3.0163    9.6938   -1.0606 H         1 <0>         0.0985
     47 H12        -3.9586    8.2690   -0.5050 H         1 <0>         0.0754
     48 H13        -0.9206    8.6398   -0.2550 H         1 <0>         0.0469
     49 H14        -2.1158    8.7644    1.0802 H         1 <0>         0.0967
     50 H15        -0.5667    6.4750   -1.3431 H         1 <0>         0.0505
     51 H16        -1.5089    5.0501   -0.7876 H         1 <0>         0.0982
     52 H17        -3.6052    6.1050   -1.5938 H         1 <0>         0.0698
     53 H18        -2.4100    5.9804   -2.9290 H         1 <0>         0.0887
     54 H19         0.1486    6.8351    1.0032 H         1 <0>         0.0603
     55 H20         1.3310    4.8918    1.6992 H         1 <0>         0.1190
     56 H21         1.3904    2.4458    1.9760 H         1 <0>         0.1219
     57 H22        -0.7040    1.1513    1.9384 H         1 <0>         0.1208
     58 H23        -2.8567    2.3018    1.6142 H         1 <0>         0.1215
     59 H24        -2.9169    4.7489    1.3468 H         1 <0>         0.1291
     60 H25        -3.3017    6.7421    2.3990 H         1 <0>         0.1291
     61 H26        -3.9179    7.7870    4.5418 H         1 <0>         0.1216
     62 H27        -2.1743    8.7562    5.9853 H         1 <0>         0.1206
     63 H28         0.1864    8.6733    5.2898 H         1 <0>         0.1215
     64 H29         0.8035    7.6201    3.1513 H         1 <0>         0.1183
     65 H30        -6.6566   10.4582   -2.2038 H         1 <0>         0.0817
     66 H31        -7.6808    9.6716   -3.4524 H         1 <0>         0.0863
     67 H32        -6.7345   11.1422   -3.8630 H         1 <0>         0.0867
@<TRIPOS>BOND
     1    1    2 1
     2    1   37 1
     3    1   38 1
     4    1   39 1
     5    2    7 ar
     6    2    3 ar
     7    3    4 ar
     8    3   40 1
     9    4    5 ar
    10    4   41 1
    11    5    6 ar
    12    5   42 1
    13    6    7 ar
    14    6   43 1
    15    7    8 1
    16    8    9 1
    17    8   44 1
    18    8   45 1
    19    9   15 1
    20    9   10 2
    21   10   11 1
    22   10   36 1
    23   11   12 2
    24   12   13 1
    25   12   17 1
    26   13   14 1
    27   13   15 am
    28   15   16 2
    29   17   22 1
    30   17   18 1
    31   18   19 1
    32   18   46 1
    33   18   47 1
    34   19   20 1
    35   19   48 1
    36   19   49 1
    37   20   21 1
    38   20   23 1
    39   21   22 1
    40   21   50 1
    41   21   51 1
    42   22   52 1
    43   22   53 1
    44   23   24 1
    45   23   30 1
    46   23   54 1
    47   24   29 ar
    48   24   25 ar
    49   25   26 ar
    50   25   55 1
    51   26   27 ar
    52   26   56 1
    53   27   28 ar
    54   27   57 1
    55   28   29 ar
    56   28   58 1
    57   29   59 1
    58   30   35 ar
    59   30   31 ar
    60   31   32 ar
    61   31   60 1
    62   32   33 ar
    63   32   61 1
    64   33   34 ar
    65   33   62 1
    66   34   35 ar
    67   34   63 1
    68   35   64 1
    69   36   65 1
    70   36   66 1
    71   36   67 1
@<TRIPOS>MOLECULE
ZINC33251053
   58    60     0     0     0
SMALL
USER_CHARGES
(2S)-2-[6,7-dimethyl-2-oxo-3-(trifluoromethyl)quinoxalin-1-yl]-N-(4-isopropylphenyl)butanamide
@<TRIPOS>ATOM
      1 C1         -0.2437   -2.6095   -2.4750 C.3       1 <0>        -0.1528
      2 C2         -0.0993   -3.5875   -1.3073 C.3       1 <0>        -0.1420
      3 C3         -0.0167   -2.8060    0.0054 C.3       1 <0>         0.1139
      4 H1         -0.8672   -2.1160    0.1085 H         1 <0>         0.1358
      5 C4          0.0019   -3.7699    1.1636 C.2       1 <0>         0.5108
      6 O1          0.9454   -3.7843    1.9256 O.2       1 <0>        -0.4947
      7 N1         -1.0300   -4.6160    1.3528 N.am      1 <0>        -0.6794
      8 C5         -1.0637   -5.4360    2.4861 C.ar      1 <0>         0.1465
      9 C6         -1.6368   -6.6989    2.4144 C.ar      1 <0>        -0.1407
     10 C7         -1.6624   -7.5085    3.5331 C.ar      1 <0>        -0.0946
     11 C8         -1.1297   -7.0578    4.7269 C.ar      1 <0>        -0.0893
     12 C9         -0.5638   -5.7984    4.8032 C.ar      1 <0>        -0.0974
     13 C10        -0.5291   -4.9865    3.6864 C.ar      1 <0>        -0.1188
     14 C11        -1.1654   -7.9412    5.9473 C.3       1 <0>        -0.0570
     15 C12        -2.6180   -8.2751    6.2928 C.3       1 <0>        -0.1451
     16 C13        -0.3985   -9.2343    5.6635 C.3       1 <0>        -0.1465
     17 N2          1.2083   -2.0025    0.0191 N.am      1 <0>        -0.4921
     18 C14         1.1457   -0.6312    0.1647 C.ar      1 <0>         0.1849
     19 C15        -0.0843    0.0062    0.2997 C.ar      1 <0>        -0.1768
     20 C16        -0.1346    1.3752    0.4440 C.ar      1 <0>         0.0063
     21 C17         1.0337    2.1264    0.4559 C.ar      1 <0>        -0.1149
     22 C18         2.2501    1.5232    0.3252 C.ar      1 <0>        -0.0088
     23 C19         2.3295    0.1297    0.1768 C.ar      1 <0>         0.0060
     24 N3          3.5293   -0.4682    0.0471 N.2       1 <0>        -0.3288
     25 C20         3.6249   -1.7595   -0.0916 C.2       1 <0>         0.0029
     26 C21         2.4171   -2.5920   -0.1098 C.2       1 <0>         0.5280
     27 O2          2.5030   -3.7997   -0.2397 O.2       1 <0>        -0.4746
     28 C22         4.9810   -2.4009   -0.2346 C.3       1 <0>         0.5439
     29 F1          5.9711   -1.4135   -0.1887 F         1 <0>        -0.1579
     30 F2          5.1797   -3.3094    0.8104 F         1 <0>        -0.1586
     31 F3          5.0513   -3.0751   -1.4584 F         1 <0>        -0.1617
     32 C23         0.9565    3.6230    0.6144 C.3       1 <0>        -0.1165
     33 C24        -1.4677    2.0639    0.5837 C.3       1 <0>        -0.1343
     34 H2         -0.3031   -3.1715   -3.4187 H         1 <0>         0.0711
     35 H3          0.6280   -1.9391   -2.5017 H         1 <0>         0.0522
     36 H4         -1.1598   -2.0148   -2.3441 H         1 <0>         0.0612
     37 H5         -0.9710   -4.2579   -1.2806 H         1 <0>         0.0907
     38 H6          0.8168   -4.1822   -1.4382 H         1 <0>         0.1025
     39 H7         -1.8457   -4.6619    0.6163 H         1 <0>         0.4335
     40 H8         -2.0577   -7.0495    1.4836 H         1 <0>         0.1255
     41 H9         -2.1031   -8.4929    3.4765 H         1 <0>         0.1257
     42 H10        -0.1482   -5.4494    5.7369 H         1 <0>         0.1239
     43 H11        -0.0863   -4.0033    3.7464 H         1 <0>         0.1293
     44 H12        -0.6958   -7.4040    6.7845 H         1 <0>         0.0776
     45 H13        -2.6441   -8.9199    7.1836 H         1 <0>         0.0591
     46 H14        -3.0848   -8.8000    5.4463 H         1 <0>         0.0571
     47 H15        -3.1694   -7.3454    6.4968 H         1 <0>         0.0559
     48 H16        -0.4246   -9.8791    6.5543 H         1 <0>         0.0592
     49 H17         0.6458   -8.9942    5.4151 H         1 <0>         0.0568
     50 H18        -0.8654   -9.7592    4.8171 H         1 <0>         0.0571
     51 H19        -0.9971   -0.5711    0.2910 H         1 <0>         0.1410
     52 H20         3.1518    2.1176    0.3359 H         1 <0>         0.1512
     53 H21         1.9718    4.0460    0.6011 H         1 <0>         0.0728
     54 H22         0.4707    3.8658    1.5710 H         1 <0>         0.0764
     55 H23         0.3707    4.0496   -0.2131 H         1 <0>         0.0766
     56 H24        -1.3113    3.1477    0.6879 H         1 <0>         0.0823
     57 H25        -1.9866    1.6810    1.4748 H         1 <0>         0.0824
     58 H26        -2.0782    1.8657   -0.3096 H         1 <0>         0.0832
@<TRIPOS>BOND
     1    1    2 1
     2    1   34 1
     3    1   35 1
     4    1   36 1
     5    2    3 1
     6    2   37 1
     7    2   38 1
     8    3    4 1
     9    3    5 1
    10    3   17 1
    11    5    6 2
    12    5    7 am
    13    7    8 1
    14    7   39 1
    15    8   13 ar
    16    8    9 ar
    17    9   10 ar
    18    9   40 1
    19   10   11 ar
    20   10   41 1
    21   11   12 ar
    22   11   14 1
    23   12   13 ar
    24   12   42 1
    25   13   43 1
    26   14   15 1
    27   14   16 1
    28   14   44 1
    29   15   45 1
    30   15   46 1
    31   15   47 1
    32   16   48 1
    33   16   49 1
    34   16   50 1
    35   17   26 am
    36   17   18 1
    37   18   23 ar
    38   18   19 ar
    39   19   20 ar
    40   19   51 1
    41   20   21 ar
    42   20   33 1
    43   21   22 ar
    44   21   32 1
    45   22   23 ar
    46   22   52 1
    47   23   24 1
    48   24   25 2
    49   25   26 1
    50   25   28 1
    51   26   27 2
    52   28   29 1
    53   28   30 1
    54   28   31 1
    55   32   53 1
    56   32   54 1
    57   32   55 1
    58   33   56 1
    59   33   57 1
    60   33   58 1
@<TRIPOS>MOLECULE
ZINC39929531
   48    50     0     0     0
SMALL
USER_CHARGES

@<TRIPOS>ATOM
      1 C1         -0.0187    1.5258    0.0104 C.3       1 <0>        -0.1544
      2 C2          0.0021   -0.0041    0.0020 C.3       1 <0>         0.0519
      3 O1          0.6932   -0.4774    1.1597 O.3       1 <0>        -0.3120
      4 C3          0.8020   -1.8243    1.3057 C.ar      1 <0>         0.1487
      5 C4          0.2582   -2.6705    0.3488 C.ar      1 <0>        -0.2037
      6 C5          0.3664   -4.0375    0.4932 C.ar      1 <0>        -0.0456
      7 C6          1.0237   -4.5702    1.6032 C.ar      1 <0>        -0.0888
      8 C7          1.5691   -3.7161    2.5630 C.ar      1 <0>        -0.0664
      9 C8          1.4616   -2.3502    2.4084 C.ar      1 <0>        -0.1450
     10 C9          1.1417   -6.0360    1.7623 C.2       1 <0>         0.1497
     11 C10         0.6196   -6.8634    0.8330 C.2       1 <0>        -0.2118
     12 S1          1.0289   -8.4715    1.4922 S.3       1 <0>         0.0213
     13 C11         1.8722   -7.9263    2.9690 C.2       1 <0>         0.4189
     14 N1          1.7852   -6.5598    2.8489 N.pl3     1 <0>        -0.6108
     15 N2          2.4361   -8.6472    3.9239 N.2       1 <0>        -0.4230
     16 N3          2.4178  -10.0460    3.8489 N.2       1 <0>        -0.2582
     17 C12         2.9700  -10.7520    4.7840 C.2       1 <0>         0.0918
     18 C13         3.6323  -10.0686    5.9525 C.3       1 <0>        -0.1569
     19 C14         2.8811  -10.3958    7.2174 C.2       1 <0>         0.3975
     20 O2          1.9043  -11.1131    7.1742 O.2       1 <0>        -0.4249
     21 C15         3.3326   -9.8453    8.5036 C.ar      1 <0>        -0.1776
     22 C16         4.4560   -9.0125    8.5561 C.ar      1 <0>        -0.0438
     23 C17         4.8737   -8.5001    9.7646 C.ar      1 <0>        -0.1656
     24 C18         4.1837   -8.8082   10.9279 C.ar      1 <0>         0.1328
     25 C19         3.0693   -9.6331   10.8828 C.ar      1 <0>        -0.1652
     26 C20         2.6374  -10.1471    9.6800 C.ar      1 <0>        -0.0285
     27 F1          4.5991   -8.3031   12.1100 F         1 <0>        -0.1316
     28 C21         2.9502  -12.2567    4.7034 C.3       1 <0>         0.5232
     29 F2          2.2848  -12.6526    3.5382 F         1 <0>        -0.1638
     30 F3          4.2630  -12.7396    4.6776 F         1 <0>        -0.1702
     31 F4          2.2846  -12.7748    5.8195 F         1 <0>        -0.1479
     32 H1          1.0039    1.9031    0.0027 H         1 <0>         0.0678
     33 H2         -0.5459    1.8868   -0.8726 H         1 <0>         0.0814
     34 H3         -0.5289    1.8773    0.9072 H         1 <0>         0.0678
     35 H4         -1.0205   -0.3814    0.0098 H         1 <0>         0.0656
     36 H5          0.5123   -0.3556   -0.8948 H         1 <0>         0.0656
     37 H6         -0.2506   -2.2576   -0.5097 H         1 <0>         0.1376
     38 H7         -0.0572   -4.6952   -0.2514 H         1 <0>         0.1367
     39 H8          2.0782   -4.1245    3.4235 H         1 <0>         0.1273
     40 H9          1.8871   -1.6885    3.1483 H         1 <0>         0.1390
     41 H10         0.0900   -6.6164   -0.0753 H         1 <0>         0.2061
     42 H11         4.6616  -10.4162    6.0410 H         1 <0>         0.1271
     43 H12         3.6252   -8.9902    5.7944 H         1 <0>         0.1392
     44 H13         4.9945   -8.7724    7.6513 H         1 <0>         0.1431
     45 H14         5.7406   -7.8573    9.8065 H         1 <0>         0.1443
     46 H15         2.5365   -9.8691   11.7921 H         1 <0>         0.1445
     47 H16         1.7670  -10.7856    9.6456 H         1 <0>         0.1465
     48 H17         2.1694   -5.9786    3.5238 H         1 <0>         0.4200
@<TRIPOS>BOND
     1    1    2 1
     2    1   32 1
     3    1   33 1
     4    1   34 1
     5    2    3 1
     6    2   35 1
     7    2   36 1
     8    3    4 1
     9    4    9 ar
    10    4    5 ar
    11    5    6 ar
    12    5   37 1
    13    6    7 ar
    14    6   38 1
    15    7    8 ar
    16    7   10 1
    17    8    9 ar
    18    8   39 1
    19    9   40 1
    20   10   14 1
    21   10   11 2
    22   11   12 1
    23   11   41 1
    24   12   13 1
    25   13   14 1
    26   13   15 2
    27   14   48 1
    28   15   16 1
    29   16   17 2
    30   17   18 1
    31   17   28 1
    32   18   19 1
    33   18   42 1
    34   18   43 1
    35   19   20 2
    36   19   21 1
    37   21   26 ar
    38   21   22 ar
    39   22   23 ar
    40   22   44 1
    41   23   24 ar
    42   23   45 1
    43   24   25 ar
    44   24   27 1
    45   25   26 ar
    46   25   46 1
    47   26   47 1
    48   28   29 1
    49   28   30 1
    50   28   31 1
@<TRIPOS>MOLECULE
ZINC60384431
   58    60     0     0     0
SMALL
USER_CHARGES

@<TRIPOS>ATOM
      1 C1         -0.0187    1.5258    0.0104 C.3       1 <0>        -0.1453
      2 C2          0.0021   -0.0041    0.0020 C.3       1 <0>        -0.1223
      3 H1          0.5123   -0.3556   -0.8948 H         1 <0>         0.1272
      4 C3         -1.4117   -0.5257    0.0127 C.2       1 <0>         0.5416
      5 O1         -1.9390   -0.8271    1.0625 O.2       1 <0>        -0.5032
      6 N1         -2.0902   -0.6573   -1.1443 N.am      1 <0>        -0.7138
      7 C4         -3.4646   -1.1643   -1.1339 C.3       1 <0>         0.2836
      8 C5         -4.3441   -0.2367   -0.2931 C.3       1 <0>        -0.1287
      9 C6         -5.7795   -0.7663   -0.2823 C.3       1 <0>        -0.1224
     10 C7         -6.3152   -0.8172   -1.7145 C.3       1 <0>        -0.1239
     11 C8         -5.4357   -1.7448   -2.5553 C.3       1 <0>        -0.1213
     12 C9         -4.0003   -1.2152   -2.5662 C.3       1 <0>        -0.1196
     13 C10        -3.4841   -2.5173   -0.5545 C.1       1 <0>         0.2014
     14 N2         -3.4991   -3.5615   -0.1073 N.1       1 <0>        -0.4038
     15 S1          0.8794   -0.6050    1.4716 S.3       1 <0>         0.1314
     16 C11         2.5331   -0.0421    1.2407 C.2       1 <0>         0.0397
     17 N3          3.0464    0.6596    0.2485 N.2       1 <0>        -0.3007
     18 N4          4.3799    0.9972    0.2672 N.2       1 <0>        -0.3024
     19 C12         5.1390    0.6175    1.2771 C.2       1 <0>         0.0530
     20 S2          3.9608   -0.2624    2.2914 S.3       1 <0>         0.0699
     21 S3          6.8548    0.9067    1.5547 S.3       1 <0>         0.0622
     22 C13         7.3767    1.8707    0.1095 C.3       1 <0>        -0.0689
     23 C14         8.8453    2.1898    0.2222 C.ar      1 <0>        -0.0920
     24 C15         9.2544    3.3464    0.8591 C.ar      1 <0>        -0.0924
     25 C16        10.6014    3.6391    0.9625 C.ar      1 <0>        -0.1177
     26 C17        11.5394    2.7748    0.4293 C.ar      1 <0>        -0.0610
     27 C18        11.1303    1.6177   -0.2068 C.ar      1 <0>        -0.1145
     28 C19         9.7834    1.3230   -0.3064 C.ar      1 <0>        -0.0929
     29 C20        13.0079    3.0944    0.5412 C.3       1 <0>        -0.0606
     30 C21        13.7152    1.9788    1.3132 C.3       1 <0>        -0.1457
     31 C22        13.6131    3.2083   -0.8594 C.3       1 <0>        -0.1456
     32 H2          1.0039    1.9031    0.0027 H         1 <0>         0.0855
     33 H3         -0.5459    1.8868   -0.8726 H         1 <0>         0.0786
     34 H4         -0.5289    1.8773    0.9072 H         1 <0>         0.0778
     35 H5         -1.6686   -0.4162   -1.9840 H         1 <0>         0.4140
     36 H6         -3.9625   -0.2005    0.7272 H         1 <0>         0.0942
     37 H7         -4.3297    0.7651   -0.7222 H         1 <0>         0.0875
     38 H8         -5.7939   -1.7682    0.1468 H         1 <0>         0.0628
     39 H9         -6.4061   -0.1055    0.3167 H         1 <0>         0.0767
     40 H10        -7.3378   -1.1945   -1.7068 H         1 <0>         0.0698
     41 H11        -6.3008    0.1847   -2.1436 H         1 <0>         0.0705
     42 H12        -5.4501   -2.7467   -2.1262 H         1 <0>         0.0647
     43 H13        -5.8174   -1.7810   -3.5757 H         1 <0>         0.0796
     44 H14        -3.9859   -0.2133   -2.9953 H         1 <0>         0.0954
     45 H15        -3.3738   -1.8760   -3.1652 H         1 <0>         0.0811
     46 H16         7.1992    1.2918   -0.7968 H         1 <0>         0.1078
     47 H17         6.8057    2.7982    0.0659 H         1 <0>         0.1080
     48 H18         8.5216    4.0216    1.2757 H         1 <0>         0.1271
     49 H19        10.9211    4.5431    1.4595 H         1 <0>         0.1264
     50 H20        11.8631    0.9427   -0.6236 H         1 <0>         0.1262
     51 H21         9.4640    0.4171   -0.8001 H         1 <0>         0.1268
     52 H22        13.1349    4.0391    1.0698 H         1 <0>         0.0794
     53 H23        14.7773    2.2099    1.3941 H         1 <0>         0.0601
     54 H24        13.2840    1.8976    2.3110 H         1 <0>         0.0569
     55 H25        13.5882    1.0341    0.7846 H         1 <0>         0.0575
     56 H26        13.1092    4.0031   -1.4094 H         1 <0>         0.0565
     57 H27        14.6753    3.4394   -0.7785 H         1 <0>         0.0602
     58 H28        13.4861    2.2636   -1.3881 H         1 <0>         0.0575
@<TRIPOS>BOND
     1    1    2 1
     2    1   32 1
     3    1   33 1
     4    1   34 1
     5    2    3 1
     6    2    4 1
     7    2   15 1
     8    4    5 2
     9    4    6 am
    10    6    7 1
    11    6   35 1
    12    7   12 1
    13    7    8 1
    14    7   13 1
    15    8    9 1
    16    8   36 1
    17    8   37 1
    18    9   10 1
    19    9   38 1
    20    9   39 1
    21   10   11 1
    22   10   40 1
    23   10   41 1
    24   11   12 1
    25   11   42 1
    26   11   43 1
    27   12   44 1
    28   12   45 1
    29   13   14 3
    30   15   16 1
    31   16   20 1
    32   16   17 2
    33   17   18 1
    34   18   19 2
    35   19   20 1
    36   19   21 1
    37   21   22 1
    38   22   23 1
    39   22   46 1
    40   22   47 1
    41   23   28 ar
    42   23   24 ar
    43   24   25 ar
    44   24   48 1
    45   25   26 ar
    46   25   49 1
    47   26   27 ar
    48   26   29 1
    49   27   28 ar
    50   27   50 1
    51   28   51 1
    52   29   30 1
    53   29   31 1
    54   29   52 1
    55   30   53 1
    56   30   54 1
    57   30   55 1
    58   31   56 1
    59   31   57 1
    60   31   58 1
@<TRIPOS>MOLECULE
ZINC15221509
   57    61     0     0     0
SMALL
USER_CHARGES
(2S,5Z)-3-[(2-chloro-6-methyl-3-quinolyl)methyleneamino]-2-phenyl-5-[(E)-3-phenylprop-2-enylidene]imidazolidin-4-one
@<TRIPOS>ATOM
      1 C1        -10.7463   -1.6862    2.1362 C.3       1 <0>        -0.1186
      2 C2         -9.5786   -1.1225    1.3683 C.ar      1 <0>        -0.0843
      3 C3         -9.8113   -0.3294    0.2466 C.ar      1 <0>        -0.0932
      4 C4         -8.7794    0.1950   -0.4699 C.ar      1 <0>        -0.0893
      5 C5         -7.4546   -0.0621   -0.0779 C.ar      1 <0>         0.1421
      6 C6         -7.2198   -0.8690    1.0641 C.ar      1 <0>        -0.0978
      7 C7         -8.3095   -1.3943    1.7796 C.ar      1 <0>        -0.0917
      8 C8         -5.8966   -1.1329    1.4564 C.ar      1 <0>        -0.0198
      9 C9         -4.8691   -0.5757    0.7029 C.ar      1 <0>        -0.0731
     10 C10        -5.1845    0.2154   -0.4194 C.ar      1 <0>         0.2211
     11 N1         -6.4257    0.4436   -0.7679 N.ar      1 <0>        -0.4709
     12 Cl1        -3.8986    0.9035   -1.3609 Cl        1 <0>         0.0173
     13 C11        -3.4627   -0.8156    1.0715 C.2       1 <0>         0.0603
     14 N2         -2.5076   -0.2969    0.3608 N.2       1 <0>        -0.1961
     15 N3         -1.1704   -0.5250    0.7113 N.am      1 <0>        -0.4713
     16 C12         0.0021   -0.0041    0.0020 C.3       1 <0>         0.3379
     17 H1          0.0086   -0.3638   -1.0375 H         1 <0>         0.0805
     18 N4          1.1861   -0.4938    0.7188 N.2       1 <0>        -0.6487
     19 C13         0.7187   -1.2597    1.7903 C.2       1 <0>         0.1480
     20 C14         1.4928   -1.8983    2.7097 C.2       1 <0>        -0.3208
     21 C15         2.8991   -1.8176    2.6261 C.2       1 <0>         0.0406
     22 C16         3.6684   -2.4523    3.5397 C.2       1 <0>        -0.2999
     23 C17         5.1341   -2.3682    3.4526 C.ar      1 <0>         0.0209
     24 C18         5.7367   -1.6375    2.4228 C.ar      1 <0>        -0.1535
     25 C19         7.1113   -1.5588    2.3516 C.ar      1 <0>        -0.1078
     26 C20         7.8950   -2.2097    3.2886 C.ar      1 <0>        -0.1723
     27 C21         7.3067   -2.9394    4.3071 C.ar      1 <0>        -0.1113
     28 C22         5.9334   -3.0232    4.3957 C.ar      1 <0>        -0.1547
     29 C23        -0.7456   -1.2583    1.7558 C.2       1 <0>         0.5031
     30 O1         -1.4674   -1.8329    2.5502 O.2       1 <0>        -0.5353
     31 C24        -0.0184    1.5028    0.0103 C.ar      1 <0>        -0.0830
     32 C25        -1.2248    2.1776    0.0197 C.ar      1 <0>        -0.1259
     33 C26        -1.2435    3.5598    0.0322 C.ar      1 <0>        -0.1332
     34 C27        -0.0559    4.2672    0.0251 C.ar      1 <0>        -0.1289
     35 C28         1.1505    3.5924    0.0100 C.ar      1 <0>        -0.1335
     36 C29         1.1693    2.2102    0.0028 C.ar      1 <0>        -0.0800
     37 H2        -11.6858   -1.3651    1.6628 H         1 <0>         0.0676
     38 H3        -10.7143   -1.3202    3.1730 H         1 <0>         0.0728
     39 H4        -10.6910   -2.7848    2.1333 H         1 <0>         0.0728
     40 H5        -10.8271   -0.1275   -0.0596 H         1 <0>         0.1316
     41 H6         -8.9783    0.8076   -1.3368 H         1 <0>         0.1385
     42 H7         -8.1411   -2.0103    2.6506 H         1 <0>         0.1347
     43 H8         -5.6840   -1.7467    2.3192 H         1 <0>         0.1570
     44 H9         -3.2219   -1.4341    1.9487 H         1 <0>         0.1702
     45 H10         1.0222   -2.4773    3.5179 H         1 <0>         0.0986
     46 H11         3.3697   -1.2385    1.8179 H         1 <0>         0.1053
     47 H12         3.1978   -3.0314    4.3479 H         1 <0>         0.0989
     48 H13         5.1266   -1.1330    1.6882 H         1 <0>         0.1209
     49 H14         7.5779   -0.9917    1.5596 H         1 <0>         0.1100
     50 H15         8.9713   -2.1482    3.2244 H         1 <0>         0.1068
     51 H16         7.9251   -3.4442    5.0345 H         1 <0>         0.1083
     52 H17         5.4759   -3.5932    5.1908 H         1 <0>         0.1119
     53 H18        -2.1527    1.6249    0.0211 H         1 <0>         0.1431
     54 H19        -2.1860    4.0870    0.0437 H         1 <0>         0.1118
     55 H20        -0.0705    5.3471    0.0311 H         1 <0>         0.1125
     56 H21         2.0784    4.1450    0.0041 H         1 <0>         0.1163
     57 H22         2.1118    1.6830   -0.0091 H         1 <0>         0.1336
@<TRIPOS>BOND
     1    1    2 1
     2    1   37 1
     3    1   38 1
     4    1   39 1
     5    2    7 ar
     6    2    3 ar
     7    3    4 ar
     8    3   40 1
     9    4    5 ar
    10    4   41 1
    11    5   11 ar
    12    5    6 ar
    13    6    7 ar
    14    6    8 ar
    15    7   42 1
    16    8    9 ar
    17    8   43 1
    18    9   10 ar
    19    9   13 1
    20   10   11 ar
    21   10   12 1
    22   13   14 2
    23   13   44 1
    24   14   15 1
    25   15   29 am
    26   15   16 1
    27   16   17 1
    28   16   18 1
    29   16   31 1
    30   18   19 1
    31   19   20 2
    32   19   29 1
    33   20   21 1
    34   20   45 1
    35   21   22 2
    36   21   46 1
    37   22   23 1
    38   22   47 1
    39   23   28 ar
    40   23   24 ar
    41   24   25 ar
    42   24   48 1
    43   25   26 ar
    44   25   49 1
    45   26   27 ar
    46   26   50 1
    47   27   28 ar
    48   27   51 1
    49   28   52 1
    50   29   30 2
    51   31   36 ar
    52   31   32 ar
    53   32   33 ar
    54   32   53 1
    55   33   34 ar
    56   33   54 1
    57   34   35 ar
    58   34   55 1
    59   35   36 ar
    60   35   56 1
    61   36   57 1
@<TRIPOS>MOLECULE
ZINC35704619
   68    71     0     0     0
SMALL
USER_CHARGES

@<TRIPOS>ATOM
      1 C1          4.4073   -2.7027   -1.7847 C.3       1 <0>        -0.1626
      2 C2          4.0751   -1.2678   -2.1989 C.3       1 <0>         0.1348
      3 N1          2.6242   -1.1243   -2.3418 N.pl3     1 <0>        -0.6384
      4 C3          1.8244   -0.6188   -1.2233 C.3       1 <0>         0.1081
      5 C4          2.0088   -1.4663   -3.5341 C.2       1 <0>         0.5021
      6 O1          2.7276   -2.0471   -4.5255 O.3       1 <0>        -0.7009
      7 C5          0.6958   -1.2220   -3.7086 C.2       1 <0>        -0.4636
      8 C6          0.0677   -1.4768   -5.0130 C.2       1 <0>         0.2305
      9 C7          0.7487   -2.0820   -6.0110 C.2       1 <0>        -0.3056
     10 S1         -0.4676   -2.1278   -7.3122 S.3       1 <0>         0.1380
     11 C8         -1.7368   -1.3842   -6.5040 C.2       1 <0>         0.3203
     12 N2         -2.9627   -1.0914   -6.8868 N.2       1 <0>        -0.5966
     13 C9         -3.8681   -0.4950   -6.1286 C.2       1 <0>         0.3008
     14 C10        -3.5637   -0.1286   -4.8316 C.2       1 <0>        -0.3908
     15 C11        -2.1730   -0.4328   -4.3208 C.3       1 <0>         0.2606
     16 H1         -2.2706   -1.0627   -3.4366 H         1 <0>         0.0698
     17 N3         -1.2406   -1.1114   -5.2600 N.pl3     1 <0>        -0.5116
     18 C12        -1.5417    0.8667   -3.8920 C.ar      1 <0>        -0.0702
     19 C13        -1.1097    1.7722   -4.8430 C.ar      1 <0>        -0.0898
     20 C14        -0.5307    2.9642   -4.4497 C.ar      1 <0>        -0.1213
     21 C15        -0.3840    3.2509   -3.1054 C.ar      1 <0>        -0.0788
     22 C16        -0.8169    2.3458   -2.1544 C.ar      1 <0>        -0.1120
     23 C17        -1.3998    1.1557   -2.5477 C.ar      1 <0>        -0.0675
     24 C18         0.2481    4.5500   -2.6766 C.3       1 <0>        -0.0530
     25 C19        -0.7484    5.3483   -1.8337 C.3       1 <0>        -0.1406
     26 C20         1.4999    4.2584   -1.8465 C.3       1 <0>        -0.1413
     27 C21        -4.5111    0.5037   -4.0173 C.2       1 <0>         0.5366
     28 O2         -5.6259    0.7396   -4.4497 O.2       1 <0>        -0.5511
     29 O3         -4.1894    0.8524   -2.7519 O.3       1 <0>        -0.3453
     30 C22        -5.2047    1.4940   -1.9777 C.3       1 <0>         0.1113
     31 C23        -4.6677    1.8059   -0.6046 C.ar      1 <0>        -0.0856
     32 C24        -4.7934    0.8795    0.4136 C.ar      1 <0>        -0.0971
     33 C25        -4.3007    1.1656    1.6731 C.ar      1 <0>        -0.1243
     34 C26        -3.6820    2.3780    1.9142 C.ar      1 <0>        -0.1145
     35 C27        -3.5554    3.3041    0.8958 C.ar      1 <0>        -0.1227
     36 C28        -4.0443    3.0162   -0.3648 C.ar      1 <0>        -0.0890
     37 C29        -5.2405   -0.2128   -6.6835 C.3       1 <0>        -0.0915
     38 H2          3.9988   -2.8986   -0.7933 H         1 <0>         0.0411
     39 H3          3.9705   -3.3981   -2.5015 H         1 <0>         0.0641
     40 H4          5.4892   -2.8338   -1.7643 H         1 <0>         0.0485
     41 H5          4.4352   -0.5770   -1.4365 H         1 <0>         0.0508
     42 H6          4.5579   -1.0431   -3.1499 H         1 <0>         0.0690
     43 H7          1.7547    0.4670   -1.2879 H         1 <0>         0.0347
     44 H8          0.8244   -1.0503   -1.2675 H         1 <0>         0.0614
     45 H9          2.2989   -0.8971   -0.2823 H         1 <0>         0.0453
     46 H10         0.1044   -0.8388   -2.8901 H         1 <0>         0.0940
     47 H11         1.7662   -2.4441   -6.0181 H         1 <0>         0.2367
     48 H12        -1.2243    1.5482   -5.8933 H         1 <0>         0.1013
     49 H13        -0.1925    3.6713   -5.1927 H         1 <0>         0.1106
     50 H14        -0.7020    2.5697   -1.1041 H         1 <0>         0.1116
     51 H15        -1.7414    0.4502   -1.8047 H         1 <0>         0.1127
     52 H16         0.5236    5.1285   -3.5584 H         1 <0>         0.0708
     53 H17        -1.0238    4.7698   -0.9519 H         1 <0>         0.0564
     54 H18        -0.2911    6.2879   -1.5235 H         1 <0>         0.0522
     55 H19        -1.6401    5.5560   -2.4251 H         1 <0>         0.0530
     56 H20         2.2098    3.6897   -2.4470 H         1 <0>         0.0564
     57 H21         1.9571    5.1980   -1.5363 H         1 <0>         0.0517
     58 H22         1.2244    3.6799   -0.9647 H         1 <0>         0.0556
     59 H23        -5.5059    2.4193   -2.4689 H         1 <0>         0.0676
     60 H24        -6.0665    0.8325   -1.8891 H         1 <0>         0.0676
     61 H25        -5.2768   -0.0677    0.2252 H         1 <0>         0.1214
     62 H26        -4.3996    0.4421    2.4688 H         1 <0>         0.1212
     63 H27        -3.2977    2.6018    2.8984 H         1 <0>         0.1197
     64 H28        -3.0723    4.2514    1.0842 H         1 <0>         0.1209
     65 H29        -3.9421    3.7382   -1.1615 H         1 <0>         0.1210
     66 H30        -5.2966   -0.5685   -7.7123 H         1 <0>         0.0635
     67 H31        -5.9890   -0.7265   -6.0802 H         1 <0>         0.0860
     68 H32        -5.4285    0.8606   -6.6593 H         1 <0>         0.0857
@<TRIPOS>BOND
     1    1    2 1
     2    1   38 1
     3    1   39 1
     4    1   40 1
     5    2    3 1
     6    2   41 1
     7    2   42 1
     8    3    4 1
     9    3    5 1
    10    4   43 1
    11    4   44 1
    12    4   45 1
    13    5    6 1
    14    5    7 2
    15    7    8 1
    16    7   46 1
    17    8   17 1
    18    8    9 2
    19    9   10 1
    20    9   47 1
    21   10   11 1
    22   11   17 1
    23   11   12 2
    24   12   13 1
    25   13   14 2
    26   13   37 1
    27   14   15 1
    28   14   27 1
    29   15   16 1
    30   15   17 1
    31   15   18 1
    32   18   23 ar
    33   18   19 ar
    34   19   20 ar
    35   19   48 1
    36   20   21 ar
    37   20   49 1
    38   21   22 ar
    39   21   24 1
    40   22   23 ar
    41   22   50 1
    42   23   51 1
    43   24   25 1
    44   24   26 1
    45   24   52 1
    46   25   53 1
    47   25   54 1
    48   25   55 1
    49   26   56 1
    50   26   57 1
    51   26   58 1
    52   27   28 2
    53   27   29 1
    54   29   30 1
    55   30   31 1
    56   30   59 1
    57   30   60 1
    58   31   36 ar
    59   31   32 ar
    60   32   33 ar
    61   32   61 1
    62   33   34 ar
    63   33   62 1
    64   34   35 ar
    65   34   63 1
    66   35   36 ar
    67   35   64 1
    68   36   65 1
    69   37   66 1
    70   37   67 1
    71   37   68 1
@<TRIPOS>MOLECULE
ZINC08973661
   57    61     0     0     0
SMALL
USER_CHARGES

@<TRIPOS>ATOM
      1 C1          0.2677    1.5207    0.2772 C.3       1 <0>        -0.1072
      2 C2          0.2215    0.0154    0.2232 C.ar      1 <0>        -0.0875
      3 C3          0.1003   -0.6389   -0.9944 C.ar      1 <0>        -0.1064
      4 C4          0.0559   -2.0062   -1.0715 C.ar      1 <0>        -0.0722
      5 C5          0.1330   -2.7987    0.0975 C.ar      1 <0>         0.1151
      6 C6          0.2559   -2.0982    1.3193 C.ar      1 <0>        -0.1726
      7 C7          0.3053   -0.7281    1.3861 C.ar      1 <0>        -0.0564
      8 S1          0.3206   -3.4179    2.5070 S.3       1 <0>         0.0426
      9 C8          0.1851   -4.7707    1.3469 C.2       1 <0>         0.4137
     10 N1          0.1045   -4.1450    0.1954 N.2       1 <0>        -0.5453
     11 N2          0.1699   -6.1313    1.5983 N.am      1 <0>        -0.5045
     12 C9          0.0613   -7.1941    0.5921 C.3       1 <0>         0.2676
     13 H1          0.9036   -7.1445   -0.0980 H         1 <0>         0.0864
     14 C10         0.0894   -8.4990    1.3533 C.2       1 <0>        -0.4863
     15 C11         0.0091   -9.8464    0.7821 C.2       1 <0>         0.5072
     16 C12         1.0987  -10.3494   -0.0807 C.ar      1 <0>        -0.1321
     17 C13         2.2616   -9.5950   -0.2534 C.ar      1 <0>        -0.0533
     18 C14         3.2743  -10.0696   -1.0595 C.ar      1 <0>        -0.1258
     19 C15         3.1402  -11.2918   -1.6980 C.ar      1 <0>        -0.0191
     20 C16         1.9891  -12.0445   -1.5311 C.ar      1 <0>        -0.1256
     21 C17         0.9721  -11.5838   -0.7223 C.ar      1 <0>        -0.0607
     22 Cl1         4.4197  -11.8823   -2.7119 Cl        1 <0>        -0.0787
     23 O1         -0.9545  -10.5508    1.0181 O.2       1 <0>        -0.4600
     24 C18         0.2036   -8.1833    2.6652 C.2       1 <0>         0.2721
     25 O2          0.2635   -9.0723    3.6831 O.3       1 <0>        -0.6334
     26 C19         0.2578   -6.7139    2.8077 C.2       1 <0>         0.5123
     27 O3          0.3637   -6.1192    3.8619 O.2       1 <0>        -0.4844
     28 C20        -1.2364   -7.0625   -0.1628 C.ar      1 <0>        -0.0705
     29 C21        -2.4128   -6.8209    0.5218 C.ar      1 <0>        -0.0870
     30 C22        -3.6031   -6.7001   -0.1707 C.ar      1 <0>        -0.1176
     31 C23        -3.6169   -6.8205   -1.5477 C.ar      1 <0>        -0.0817
     32 C24        -2.4404   -7.0612   -2.2323 C.ar      1 <0>        -0.1151
     33 C25        -1.2495   -7.1777   -1.5403 C.ar      1 <0>        -0.0968
     34 C26        -4.9148   -6.6898   -2.3025 C.3       1 <0>        -0.0543
     35 C27        -4.8162   -5.5239   -3.2884 C.3       1 <0>        -0.1413
     36 C28        -5.1912   -7.9844   -3.0695 C.3       1 <0>        -0.1427
     37 H2          1.3020    1.8555    0.1986 H         1 <0>         0.0705
     38 H3         -0.3111    1.9319   -0.5498 H         1 <0>         0.0675
     39 H4         -0.1543    1.8635    1.2219 H         1 <0>         0.0663
     40 H5          0.0391   -0.0570   -1.9022 H         1 <0>         0.1281
     41 H6         -0.0393   -2.4840   -2.0353 H         1 <0>         0.1294
     42 H7          0.4048   -0.2337    2.3411 H         1 <0>         0.1280
     43 H8          2.3670   -8.6418    0.2433 H         1 <0>         0.1420
     44 H9          4.1739   -9.4872   -1.1937 H         1 <0>         0.1345
     45 H10         1.8903  -12.9963   -2.0318 H         1 <0>         0.1337
     46 H11         0.0774  -12.1738   -0.5888 H         1 <0>         0.1400
     47 H12        -2.4020   -6.7268    1.5976 H         1 <0>         0.1104
     48 H13        -4.5223   -6.5121    0.3642 H         1 <0>         0.1148
     49 H14        -2.4513   -7.1555   -3.3082 H         1 <0>         0.1160
     50 H15        -0.3297   -7.3620   -2.0755 H         1 <0>         0.1181
     51 H16        -5.7267   -6.5035   -1.5995 H         1 <0>         0.0731
     52 H17        -4.0042   -5.7102   -3.9913 H         1 <0>         0.0560
     53 H18        -5.7549   -5.4294   -3.8343 H         1 <0>         0.0533
     54 H19        -4.6192   -4.6016   -2.7419 H         1 <0>         0.0543
     55 H20        -6.1299   -7.8899   -3.6155 H         1 <0>         0.0534
     56 H21        -4.3793   -8.1707   -3.7725 H         1 <0>         0.0561
     57 H22        -5.2614   -8.8150   -2.3672 H         1 <0>         0.0566
@<TRIPOS>BOND
     1    1    2 1
     2    1   37 1
     3    1   38 1
     4    1   39 1
     5    2    7 ar
     6    2    3 ar
     7    3    4 ar
     8    3   40 1
     9    4    5 ar
    10    4   41 1
    11    5   10 1
    12    5    6 ar
    13    6    7 ar
    14    6    8 1
    15    7   42 1
    16    8    9 1
    17    9   10 2
    18    9   11 1
    19   11   26 am
    20   11   12 1
    21   12   14 1
    22   12   28 1
    23   12   13 1
    24   14   24 2
    25   14   15 1
    26   15   23 2
    27   15   16 1
    28   16   21 ar
    29   16   17 ar
    30   17   18 ar
    31   17   43 1
    32   18   19 ar
    33   18   44 1
    34   19   20 ar
    35   19   22 1
    36   20   21 ar
    37   20   45 1
    38   21   46 1
    39   24   26 1
    40   24   25 1
    41   26   27 2
    42   28   33 ar
    43   28   29 ar
    44   29   30 ar
    45   29   47 1
    46   30   31 ar
    47   30   48 1
    48   31   32 ar
    49   31   34 1
    50   32   33 ar
    51   32   49 1
    52   33   50 1
    53   34   35 1
    54   34   36 1
    55   34   51 1
    56   35   52 1
    57   35   53 1
    58   35   54 1
    59   36   55 1
    60   36   56 1
    61   36   57 1
@<TRIPOS>MOLECULE
ZINC40522221
   44    45     0     0     0
SMALL
USER_CHARGES

@<TRIPOS>ATOM
      1 C1          0.4391    1.6448    0.0586 C.3       1 <0>        -0.1499
      2 C2          0.1846    0.1393   -0.0388 C.3       1 <0>        -0.1182
      3 C3          0.9211   -0.4248   -1.2555 C.3       1 <0>        -0.1298
      4 C4          0.6666   -1.9303   -1.3529 C.3       1 <0>         0.1054
      5 N1          1.3718   -2.4704   -2.5179 N.am      1 <0>        -0.5256
      6 C5          0.7444   -2.5066   -3.7167 C.2       1 <0>         0.5252
      7 C6          1.3824   -3.0145   -4.8539 C.2       1 <0>        -0.4083
      8 C7          2.7007   -3.5000   -4.7643 C.2       1 <0>         0.1652
      9 C8          3.3469   -3.4633   -3.5343 C.2       1 <0>        -0.3008
     10 C9          2.6342   -2.9167   -2.3782 C.2       1 <0>         0.5728
     11 O1          3.1810   -2.8698   -1.2907 O.2       1 <0>        -0.5541
     12 C10         4.6879   -3.9475   -3.4012 C.1       1 <0>         0.3129
     13 N2          5.7518   -4.3316   -3.2956 N.1       1 <0>        -0.4857
     14 C11         3.3991   -4.0505   -5.9810 C.3       1 <0>        -0.1301
     15 C12         0.6791   -3.0413   -6.1361 C.2       1 <0>         0.4346
     16 O2          1.2740   -3.3491   -7.1482 O.2       1 <0>        -0.4801
     17 C13        -0.7842   -2.6869   -6.2004 C.3       1 <0>         0.0416
     18 O3         -1.2724   -2.9170   -7.5235 O.3       1 <0>        -0.3033
     19 C14        -2.5847   -2.6452   -7.7533 C.ar      1 <0>         0.1641
     20 C15        -3.5420   -3.6317   -7.5635 C.ar      1 <0>        -0.0358
     21 C16        -4.8770   -3.3532   -7.7974 C.ar      1 <0>        -0.0046
     22 C17        -5.2580   -2.0912   -8.2205 C.ar      1 <0>        -0.0236
     23 C18        -4.3042   -1.1058   -8.4103 C.ar      1 <0>        -0.0046
     24 C19        -2.9689   -1.3793   -8.1724 C.ar      1 <0>        -0.0353
     25 Cl1        -1.7741   -0.1413   -8.4037 Cl        1 <0>         0.0014
     26 Cl2        -4.7846    0.4757   -8.9409 Cl        1 <0>        -0.0071
     27 Cl3        -6.9334   -1.7442   -8.5138 Cl        1 <0>        -0.0088
     28 Cl4        -6.0750   -4.5872   -7.5606 Cl        1 <0>        -0.0072
     29 Cl5        -3.0648   -5.2145   -7.0335 Cl        1 <0>         0.0008
     30 O4         -0.5163   -2.0461   -3.8168 O.3       1 <0>        -0.6413
     31 H1          1.5086    1.8264    0.1649 H         1 <0>         0.0523
     32 H2          0.0755    2.1340   -0.8451 H         1 <0>         0.0533
     33 H3         -0.0856    2.0467    0.9254 H         1 <0>         0.0510
     34 H4          0.5482   -0.3498    0.8649 H         1 <0>         0.0612
     35 H5         -0.8849   -0.0423   -0.1450 H         1 <0>         0.0631
     36 H6          0.5575    0.0644   -2.1592 H         1 <0>         0.0689
     37 H7          1.9906   -0.2432   -1.1492 H         1 <0>         0.0634
     38 H8          1.0302   -2.4194   -0.4492 H         1 <0>         0.0848
     39 H9         -0.4029   -2.1119   -1.4591 H         1 <0>         0.0935
     40 H10         3.8458   -3.2317   -6.5450 H         1 <0>         0.0841
     41 H11         4.1791   -4.7449   -5.6690 H         1 <0>         0.0557
     42 H12         2.6774   -4.5730   -6.6089 H         1 <0>         0.1003
     43 H13        -1.3393   -3.3058   -5.4955 H         1 <0>         0.0962
     44 H14        -0.9152   -1.6359   -5.9425 H         1 <0>         0.1022
@<TRIPOS>BOND
     1    1    2 1
     2    1   31 1
     3    1   32 1
     4    1   33 1
     5    2    3 1
     6    2   34 1
     7    2   35 1
     8    3    4 1
     9    3   36 1
    10    3   37 1
    11    4    5 1
    12    4   38 1
    13    4   39 1
    14    5   10 am
    15    5    6 1
    16    6    7 2
    17    6   30 1
    18    7    8 1
    19    7   15 1
    20    8    9 2
    21    8   14 1
    22    9   10 1
    23    9   12 1
    24   10   11 2
    25   12   13 3
    26   14   40 1
    27   14   41 1
    28   14   42 1
    29   15   16 2
    30   15   17 1
    31   17   18 1
    32   17   43 1
    33   17   44 1
    34   18   19 1
    35   19   24 ar
    36   19   20 ar
    37   20   21 ar
    38   20   29 1
    39   21   22 ar
    40   21   28 1
    41   22   23 ar
    42   22   27 1
    43   23   24 ar
    44   23   26 1
    45   24   25 1
@<TRIPOS>MOLECULE
ZINC13166253
   52    54     0     0     0
SMALL
USER_CHARGES

@<TRIPOS>ATOM
      1 C1         -0.0187    1.5258    0.0104 C.3       1 <0>        -0.1554
      2 C2          0.0021   -0.0041    0.0020 C.3       1 <0>        -0.1250
      3 C3         -1.4333   -0.5336    0.0129 C.3       1 <0>        -0.1218
      4 C4         -1.4126   -2.0635    0.0045 C.3       1 <0>        -0.1134
      5 C5         -2.8479   -2.5931    0.0153 C.3       1 <0>        -0.1053
      6 C6         -2.8272   -4.1229    0.0069 C.3       1 <0>        -0.1245
      7 S1         -4.5290   -4.7508    0.0198 S.3       1 <0>        -0.0560
      8 C7         -4.3373   -6.5023    0.0086 C.2       1 <0>         0.1705
      9 C8         -5.4346   -7.3057    0.0090 C.2       1 <0>        -0.0994
     10 C9         -5.3003   -8.8000    0.0089 C.3       1 <0>         0.0809
     11 H1         -6.0333   -9.2246   -0.6770 H         1 <0>         0.1096
     12 C10        -3.9182   -9.2228   -0.4209 C.2       1 <0>        -0.2650
     13 C11        -2.8894   -8.3486   -0.4074 C.2       1 <0>         0.2195
     14 N1         -3.0778   -7.0554   -0.0064 N.pl3     1 <0>        -0.6367
     15 C12        -1.5070   -8.7683   -0.8430 C.3       1 <0>        -0.0963
     16 C13        -1.2981  -10.2518   -0.5311 C.3       1 <0>        -0.1112
     17 C14        -2.3802  -11.0573   -1.2579 C.3       1 <0>        -0.1678
     18 C15        -3.7326  -10.5536   -0.8337 C.2       1 <0>         0.3968
     19 O1         -4.6824  -11.3115   -0.8477 O.2       1 <0>        -0.4515
     20 C16        -5.5650   -9.3199    1.3984 C.ar      1 <0>        -0.0547
     21 C17        -4.7753   -8.9040    2.4542 C.ar      1 <0>        -0.0907
     22 C18        -5.0173   -9.3804    3.7289 C.ar      1 <0>        -0.1051
     23 C19        -6.0491  -10.2737    3.9496 C.ar      1 <0>        -0.1000
     24 C20        -6.8401  -10.6908    2.8945 C.ar      1 <0>        -0.0315
     25 C21        -6.6015  -10.2087    1.6184 C.ar      1 <0>        -0.0136
     26 Cl1        -7.5984  -10.7253    0.2943 Cl        1 <0>        -0.0331
     27 Cl2        -8.1359  -11.8125    3.1710 Cl        1 <0>        -0.0477
     28 C22        -6.7394   -6.7158    0.0101 C.1       1 <0>         0.2539
     29 N2         -7.7746   -6.2478    0.0110 N.1       1 <0>        -0.3996
     30 H2          1.0039    1.9031    0.0027 H         1 <0>         0.0547
     31 H3         -0.5459    1.8868   -0.8726 H         1 <0>         0.0542
     32 H4         -0.5289    1.8773    0.9072 H         1 <0>         0.0542
     33 H5          0.5123   -0.3556   -0.8948 H         1 <0>         0.0612
     34 H6          0.5293   -0.3651    0.8851 H         1 <0>         0.0612
     35 H7         -1.9435   -0.1821    0.9097 H         1 <0>         0.0642
     36 H8         -1.9605   -0.1726   -0.8702 H         1 <0>         0.0642
     37 H9         -0.9024   -2.4150   -0.8923 H         1 <0>         0.0661
     38 H10        -0.8854   -2.4246    0.8875 H         1 <0>         0.0661
     39 H11        -3.3581   -2.2415    0.9121 H         1 <0>         0.0779
     40 H12        -3.3751   -2.2320   -0.8677 H         1 <0>         0.0778
     41 H13        -2.3170   -4.4744   -0.8899 H         1 <0>         0.0953
     42 H14        -2.3000   -4.4840    0.8900 H         1 <0>         0.0925
     43 H15        -2.3158   -6.5243    0.2730 H         1 <0>         0.4177
     44 H16        -1.3989   -8.6042   -1.9152 H         1 <0>         0.1042
     45 H17        -0.7631   -8.1770   -0.3091 H         1 <0>         0.0897
     46 H18        -0.3133  -10.5641   -0.8787 H         1 <0>         0.0883
     47 H19        -1.3794  -10.4152    0.5435 H         1 <0>         0.0767
     48 H20        -2.2660  -10.9332   -2.3347 H         1 <0>         0.1014
     49 H21        -2.2859  -12.1119   -0.9987 H         1 <0>         0.0988
     50 H22        -3.9685   -8.2068    2.2827 H         1 <0>         0.1278
     51 H23        -4.3998   -9.0549    4.5530 H         1 <0>         0.1377
     52 H24        -6.2372  -10.6461    4.9457 H         1 <0>         0.1421
@<TRIPOS>BOND
     1    1    2 1
     2    1   30 1
     3    1   31 1
     4    1   32 1
     5    2    3 1
     6    2   33 1
     7    2   34 1
     8    3    4 1
     9    3   35 1
    10    3   36 1
    11    4    5 1
    12    4   37 1
    13    4   38 1
    14    5    6 1
    15    5   39 1
    16    5   40 1
    17    6    7 1
    18    6   41 1
    19    6   42 1
    20    7    8 1
    21    8   14 1
    22    8    9 2
    23    9   10 1
    24    9   28 1
    25   10   11 1
    26   10   12 1
    27   10   20 1
    28   12   18 1
    29   12   13 2
    30   13   14 1
    31   13   15 1
    32   14   43 1
    33   15   16 1
    34   15   44 1
    35   15   45 1
    36   16   17 1
    37   16   46 1
    38   16   47 1
    39   17   18 1
    40   17   48 1
    41   17   49 1
    42   18   19 2
    43   20   25 ar
    44   20   21 ar
    45   21   22 ar
    46   21   50 1
    47   22   23 ar
    48   22   51 1
    49   23   24 ar
    50   23   52 1
    51   24   25 ar
    52   24   27 1
    53   25   26 1
    54   28   29 3
@<TRIPOS>MOLECULE
ZINC02890425
   26    27     0     0     0
SMALL
USER_CHARGES
4-[2-(4-bromo-2-thienyl)-1-cyano-vinyl]benzoic acid
@<TRIPOS>ATOM
      1 C1          0.0021   -0.0041    0.0020 C.ar      1 <0>        -0.1087
      2 C2         -0.0164    1.3612    0.0095 C.ar      1 <0>        -0.0879
      3 C3          1.1856    2.0769    0.0019 C.ar      1 <0>        -0.0948
      4 C4          2.4061    1.3932   -0.0134 C.ar      1 <0>        -0.0798
      5 C5          2.4235    0.0279   -0.0205 C.ar      1 <0>        -0.1077
      6 C6          1.2220   -0.6868   -0.0128 C.ar      1 <0>        -0.0740
      7 C7          1.2414   -2.1641   -0.0210 C.2       1 <0>         0.0067
      8 C8          1.7454   -2.8414   -1.1121 C.2       1 <0>         0.0050
      9 C9          1.7640   -4.2524   -1.1198 C.2       1 <0>        -0.1526
     10 C10         2.2181   -5.1188   -2.1107 C.2       1 <0>        -0.1081
     11 C11         2.1218   -6.4631   -1.8532 C.2       1 <0>        -0.1279
     12 C12         1.5880   -6.8771   -0.6725 C.2       1 <0>        -0.1928
     13 S1          1.2045   -5.3915    0.1342 S.3       1 <0>         0.1861
     14 Br1         2.7167   -7.7261   -3.1287 Br        1 <0>        -0.0417
     15 C13         0.7371   -2.8930    1.1038 C.1       1 <0>         0.2409
     16 N1          0.3370   -3.4713    1.9960 N.1       1 <0>        -0.3912
     17 C14         1.1662    3.5508    0.0105 C.2       1 <0>         0.4847
     18 O1          0.1060    4.1445    0.0242 O.co2     1 <0>        -0.6284
     19 H1         -0.9258   -0.5566    0.0079 H         1 <0>         0.1186
     20 H2         -0.9589    1.8885    0.0169 H         1 <0>         0.1313
     21 H3          3.3344    1.9452   -0.0190 H         1 <0>         0.1361
     22 H4          3.3656   -0.5000   -0.0316 H         1 <0>         0.1235
     23 H5          2.1258   -2.2917   -1.9603 H         1 <0>         0.1674
     24 H6          2.6302   -4.7496   -3.0382 H         1 <0>         0.1538
     25 H7          1.4394   -7.8878   -0.3220 H         1 <0>         0.1926
     26 O2          2.3244    4.2400    0.0031 O.co2     1 <0>        -0.7510
@<TRIPOS>BOND
     1    1    6 ar
     2    1    2 ar
     3    1   19 1
     4    2    3 ar
     5    2   20 1
     6    3    4 ar
     7    3   17 1
     8    4    5 ar
     9    4   21 1
    10    5    6 ar
    11    5   22 1
    12    6    7 1
    13    7    8 2
    14    7   15 1
    15    8    9 1
    16    8   23 1
    17    9   13 1
    18    9   10 2
    19   10   11 1
    20   10   24 1
    21   11   12 2
    22   11   14 1
    23   12   13 1
    24   12   25 1
    25   15   16 3
    26   17   18 2
    27   17   26 1
@<TRIPOS>MOLECULE
ZINC35697664
   27    29     0     0     0
SMALL
USER_CHARGES

@<TRIPOS>ATOM
      1 C1         -0.0184    1.5028    0.0103 C.3       1 <0>        -0.1122
      2 C2          0.0021   -0.0041    0.0020 C.ar      1 <0>        -0.0468
      3 C3          0.0058   -0.6886   -1.1978 C.ar      1 <0>        -0.1037
      4 C4          0.0250   -2.0709   -1.2069 C.ar      1 <0>        -0.1028
      5 C5          0.0401   -2.7734   -0.0142 C.ar      1 <0>        -0.0306
      6 C6          0.0365   -2.0938    1.1892 C.ar      1 <0>        -0.0743
      7 C7          0.0230   -0.7052    1.2004 C.ar      1 <0>         0.1769
      8 N1          0.0251   -0.0134    2.4179 N.pl3     1 <0>        -0.4553
      9 C8         -1.1563    0.3072    3.0334 C.2       1 <0>         0.5273
     10 O1         -2.3393   -0.0356    2.4812 O.3       1 <0>        -0.6124
     11 C9         -1.1067    0.9838    4.2231 C.2       1 <0>        -0.3427
     12 C10         0.1278    1.3512    4.8173 C.2       1 <0>         0.2162
     13 C11         0.0242    2.0396    6.0344 C.2       1 <0>        -0.1625
     14 C12        -1.1883    2.3097    6.5623 C.2       1 <0>        -0.1253
     15 S1         -2.3113    1.6042    5.3676 S.3       1 <0>         0.1000
     16 N2          1.2473    0.9939    4.1390 N.2       1 <0>        -0.5364
     17 C13         1.1868    0.3378    2.9973 C.2       1 <0>         0.5104
     18 S2          2.6509   -0.0787    2.2139 S.2       1 <0>        -0.6936
     19 Cl1         0.0631   -4.5092   -0.0301 Cl        1 <0>        -0.0765
     20 H1          1.0042    1.8801    0.0026 H         1 <0>         0.0815
     21 H2         -0.5455    1.8639   -0.8728 H         1 <0>         0.0696
     22 H3         -0.5286    1.8543    0.9071 H         1 <0>         0.0578
     23 H4         -0.0067   -0.1433   -2.1299 H         1 <0>         0.1356
     24 H5          0.0279   -2.6037   -2.1463 H         1 <0>         0.1337
     25 H6          0.0479   -2.6419    2.1197 H         1 <0>         0.1290
     26 H7          0.9183    2.3547    6.5518 H         1 <0>         0.1424
     27 H8         -1.4217    2.8255    7.4820 H         1 <0>         0.1946
@<TRIPOS>BOND
     1    1    2 1
     2    1   20 1
     3    1   21 1
     4    1   22 1
     5    2    7 ar
     6    2    3 ar
     7    3    4 ar
     8    3   23 1
     9    4    5 ar
    10    4   24 1
    11    5    6 ar
    12    5   19 1
    13    6    7 ar
    14    6   25 1
    15    7    8 1
    16    8   17 1
    17    8    9 1
    18    9   10 1
    19    9   11 2
    20   11   15 1
    21   11   12 1
    22   12   13 1
    23   12   16 2
    24   13   14 2
    25   13   26 1
    26   14   15 1
    27   14   27 1
    28   16   17 1
    29   17   18 2
@<TRIPOS>MOLECULE
ZINC41956659
   34    35     0     0     0
SMALL
USER_CHARGES

@<TRIPOS>ATOM
      1 C1         -0.2498    1.4302   -0.1397 C.3       1 <0>        -0.1436
      2 C2         -0.1407   -0.0948   -0.0812 C.3       1 <0>        -0.0909
      3 H1          0.3745   -0.4566   -0.9710 H         1 <0>         0.0682
      4 C3         -1.5427   -0.7044   -0.0204 C.3       1 <0>        -0.1094
      5 C4         -1.4336   -2.2294    0.0381 C.3       1 <0>        -0.1188
      6 C5         -0.6458   -2.6369    1.2848 C.3       1 <0>        -0.0853
      7 C6          0.7562   -2.0272    1.2240 C.3       1 <0>         0.0414
      8 C7          0.6471   -0.5023    1.1654 C.3       1 <0>        -0.1382
      9 C8          1.5322   -2.4286    2.4519 C.2       1 <0>         0.4799
     10 O1          2.5677   -3.0622    2.3385 O.co2     1 <0>        -0.6693
     11 O2          1.1245   -2.1198    3.5586 O.co2     1 <0>        -0.6793
     12 O3          1.4317   -2.5016    0.0574 O.3       1 <0>        -0.2831
     13 C9          2.6897   -2.0339   -0.1605 C.ar      1 <0>         0.1611
     14 C10         3.3092   -1.2381    0.7910 C.ar      1 <0>        -0.1320
     15 C11         4.5878   -0.7640    0.5682 C.ar      1 <0>        -0.0719
     16 C12         5.2509   -1.0819   -0.6035 C.ar      1 <0>        -0.1149
     17 C13         4.6362   -1.8757   -1.5552 C.ar      1 <0>        -0.0997
     18 C14         3.3585   -2.3573   -1.3342 C.ar      1 <0>         0.0496
     19 F1          2.7598   -3.1371   -2.2609 F         1 <0>        -0.1357
     20 Br1         7.0002   -0.4300   -0.9050 Br        1 <0>        -0.0624
     21 H2          0.7490    1.8645   -0.1830 H         1 <0>         0.0520
     22 H3         -0.8111    1.7205   -1.0278 H         1 <0>         0.0505
     23 H4         -0.7650    1.7920    0.7501 H         1 <0>         0.0535
     24 H5         -2.0579   -0.3426    0.8694 H         1 <0>         0.0604
     25 H6         -2.1040   -0.4141   -0.9085 H         1 <0>         0.0564
     26 H7         -2.4324   -2.6637    0.0815 H         1 <0>         0.0583
     27 H8         -0.9184   -2.5912   -0.8517 H         1 <0>         0.0661
     28 H9         -1.1610   -2.2751    2.1746 H         1 <0>         0.0849
     29 H10        -0.5681   -3.7233    1.3265 H         1 <0>         0.0643
     30 H11         1.6459   -0.0680    1.1221 H         1 <0>         0.0737
     31 H12         0.1319   -0.1405    2.0552 H         1 <0>         0.0826
     32 H13         2.7923   -0.9885    1.7059 H         1 <0>         0.1580
     33 H14         5.0700   -0.1441    1.3096 H         1 <0>         0.1326
     34 H15         5.1555   -2.1224   -2.4695 H         1 <0>         0.1408
@<TRIPOS>BOND
     1    1    2 1
     2    1   21 1
     3    1   22 1
     4    1   23 1
     5    2    3 1
     6    2    8 1
     7    2    4 1
     8    4    5 1
     9    4   24 1
    10    4   25 1
    11    5    6 1
    12    5   26 1
    13    5   27 1
    14    6    7 1
    15    6   28 1
    16    6   29 1
    17    7    8 1
    18    7    9 1
    19    7   12 1
    20    8   30 1
    21    8   31 1
    22    9   10 2
    23    9   11 1
    24   12   13 1
    25   13   18 ar
    26   13   14 ar
    27   14   15 ar
    28   14   32 1
    29   15   16 ar
    30   15   33 1
    31   16   17 ar
    32   16   20 1
    33   17   18 ar
    34   17   34 1
    35   18   19 1
@<TRIPOS>MOLECULE
ZINC48655435
   26    27     0     0     0
SMALL
USER_CHARGES

@<TRIPOS>ATOM
      1 C1         -0.0168    1.3846    0.0097 C.ar      1 <0>        -0.1763
      2 C2          1.1703    2.0913    0.0021 C.ar      1 <0>        -0.0429
      3 C3          2.3782    1.4176   -0.0135 C.ar      1 <0>        -0.1703
      4 C4          2.4011    0.0316   -0.0212 C.ar      1 <0>         0.1628
      5 C5          1.2153   -0.6799   -0.0132 C.ar      1 <0>        -0.2930
      6 C6          0.0021   -0.0041    0.0020 C.ar      1 <0>         0.3078
      7 N1         -1.1978   -0.7202    0.0101 N.2       1 <0>        -1.0766
      8 S1         -1.1739   -2.3760    0.0010 S.o2      1 <0>         2.6032
      9 O1         -0.6297   -2.7674   -1.2520 O.2       1 <0>        -1.0174
     10 O2         -0.6049   -2.7808    1.2386 O.2       1 <0>        -1.0176
     11 C7         -2.8494   -2.9213    0.0147 C.ar      1 <0>        -0.6177
     12 C8         -3.4960   -3.1360    1.2178 C.ar      1 <0>         0.0104
     13 C9         -4.8102   -3.5632    1.2305 C.ar      1 <0>        -0.1658
     14 C10        -5.4800   -3.7765    0.0378 C.ar      1 <0>         0.1462
     15 C11        -4.8315   -3.5612   -1.1675 C.ar      1 <0>        -0.0978
     16 C12        -3.5178   -3.1285   -1.1772 C.ar      1 <0>         0.0155
     17 Cl1        -5.6693   -3.8280   -2.6644 Cl        1 <0>        -0.0502
     18 F1         -6.7646   -4.1946    0.0492 F         1 <0>        -0.1247
     19 F2          3.5821   -0.6243   -0.0369 F         1 <0>        -0.1419
     20 Cl2         3.8677    2.3092   -0.0241 Cl        1 <0>        -0.0940
     21 H1         -0.9591    1.9119    0.0260 H         1 <0>         0.1298
     22 H2          1.1552    3.1712    0.0081 H         1 <0>         0.1276
     23 H3          1.2326   -1.7598   -0.0195 H         1 <0>         0.1178
     24 H4         -2.9735   -2.9700    2.1483 H         1 <0>         0.1555
     25 H5         -5.3145   -3.7310    2.1707 H         1 <0>         0.1513
     26 H6         -3.0130   -2.9562   -2.1163 H         1 <0>         0.1582
@<TRIPOS>BOND
     1    1    6 ar
     2    1    2 ar
     3    1   21 1
     4    2    3 ar
     5    2   22 1
     6    3    4 ar
     7    3   20 1
     8    4    5 ar
     9    4   19 1
    10    5    6 ar
    11    5   23 1
    12    6    7 1
    13    7    8 1
    14    8    9 2
    15    8   10 2
    16    8   11 1
    17   11   16 ar
    18   11   12 ar
    19   12   13 ar
    20   12   24 1
    21   13   14 ar
    22   13   25 1
    23   14   15 ar
    24   14   18 1
    25   15   16 ar
    26   15   17 1
    27   16   26 1
@<TRIPOS>MOLECULE
ZINC62710787
   33    34     0     0     0
SMALL
USER_CHARGES

@<TRIPOS>ATOM
      1 C1          1.1184   -0.7463    0.4790 C.ar      1 <0>        -0.1041
      2 C2          2.3091   -0.0491    0.5604 C.ar      1 <0>        -0.0905
      3 C3          2.3333    1.3102    0.3055 C.ar      1 <0>        -0.0991
      4 C4          1.1656    1.9713   -0.0308 C.ar      1 <0>        -0.0920
      5 C5         -0.0246    1.2733   -0.1120 C.ar      1 <0>        -0.1152
      6 C6         -0.0482   -0.0852    0.1428 C.ar      1 <0>        -0.0431
      7 C7         -1.3462   -0.8458    0.0542 C.3       1 <0>        -0.0519
      8 H1         -2.1812   -0.1525    0.1555 H         1 <0>         0.0741
      9 C8         -1.4065   -1.8842    1.1763 C.3       1 <0>        -0.1125
     10 C9         -2.7243   -2.6564    1.0863 C.3       1 <0>        -0.1141
     11 C10        -2.8097   -3.3633   -0.2680 C.3       1 <0>        -0.1227
     12 C11        -2.7494   -2.3249   -1.3900 C.3       1 <0>        -0.1127
     13 C12        -1.4316   -1.5527   -1.3000 C.3       1 <0>        -0.0502
     14 H2         -1.3887   -0.8129   -2.0994 H         1 <0>         0.0687
     15 C13        -0.2596   -2.5258   -1.4422 C.3       1 <0>        -0.1864
     16 C14        -0.2582   -3.1112   -2.8309 C.2       1 <0>         0.4907
     17 O1         -1.1153   -2.7806   -3.6325 O.co2     1 <0>        -0.6956
     18 O2          0.5999   -3.9152   -3.1527 O.co2     1 <0>        -0.7101
     19 Br1         3.9619    2.2647    0.4173 Br        1 <0>        -0.0661
     20 H3          1.1003   -1.8084    0.6737 H         1 <0>         0.1355
     21 H4          3.2205   -0.5656    0.8234 H         1 <0>         0.1295
     22 H5          1.1839    3.0326   -0.2296 H         1 <0>         0.1279
     23 H6         -0.9363    1.7893   -0.3746 H         1 <0>         0.1287
     24 H7         -0.5715   -2.5775    1.0750 H         1 <0>         0.0685
     25 H8         -1.3456   -1.3806    2.1410 H         1 <0>         0.0554
     26 H9         -2.7672   -3.3962    1.8856 H         1 <0>         0.0550
     27 H10        -3.5593   -1.9631    1.1875 H         1 <0>         0.0563
     28 H11        -1.9747   -4.0566   -0.3692 H         1 <0>         0.0651
     29 H12        -3.7485   -3.9134   -0.3321 H         1 <0>         0.0524
     30 H13        -2.8103   -2.8285   -2.3548 H         1 <0>         0.0936
     31 H14        -3.5844   -1.6316   -1.2887 H         1 <0>         0.0436
     32 H15         0.6766   -1.9945   -1.2710 H         1 <0>         0.0606
     33 H16        -0.3617   -3.3271   -0.7103 H         1 <0>         0.0604
@<TRIPOS>BOND
     1    1    6 ar
     2    1    2 ar
     3    1   20 1
     4    2    3 ar
     5    2   21 1
     6    3    4 ar
     7    3   19 1
     8    4    5 ar
     9    4   22 1
    10    5    6 ar
    11    5   23 1
    12    6    7 1
    13    7    8 1
    14    7   13 1
    15    7    9 1
    16    9   10 1
    17    9   24 1
    18    9   25 1
    19   10   11 1
    20   10   26 1
    21   10   27 1
    22   11   12 1
    23   11   28 1
    24   11   29 1
    25   12   13 1
    26   12   30 1
    27   12   31 1
    28   13   14 1
    29   13   15 1
    30   15   16 1
    31   15   32 1
    32   15   33 1
    33   16   17 2
    34   16   18 1
@<TRIPOS>MOLECULE
ZINC03846820
   51    54     0     0     0
SMALL
USER_CHARGES
4a,7,8-trimethyl-2,3,4,4b,5,6,10b,11-octahydro-1H-chrysene-2-carboxylic acid
@<TRIPOS>ATOM
      1 C1          2.4918    1.0558   -0.0099 C.3       1 <0>        -0.1144
      2 C2          1.1736    1.7862    0.0004 C.ar      1 <0>        -0.0946
      3 C3         -0.0126    1.0758    0.0080 C.ar      1 <0>        -0.1213
      4 C4         -1.2150    1.7521    0.0173 C.ar      1 <0>        -0.1182
      5 C5         -1.2425    3.1404    0.0303 C.ar      1 <0>        -0.0643
      6 C6         -0.0630    3.8488    0.0128 C.ar      1 <0>        -0.0689
      7 C7          1.1470    3.1649    0.0029 C.ar      1 <0>        -0.0910
      8 C8          2.4412    3.9369   -0.0047 C.3       1 <0>        -0.1202
      9 C9         -0.0140    5.3533   -0.0146 C.3       1 <0>        -0.0803
     10 C10        -1.3527    5.9598    0.3821 C.3       1 <0>        -0.1204
     11 C11        -2.4758    5.2638   -0.3719 C.3       1 <0>        -0.0653
     12 H1         -2.1981    5.2600   -1.4259 H         1 <0>         0.0639
     13 C12        -2.5912    3.8158    0.0632 C.3       1 <0>        -0.0378
     14 H2         -3.2784    3.2898   -0.5995 H         1 <0>         0.0817
     15 C13        -3.1213    3.7684    1.5028 C.3       1 <0>        -0.0694
     16 C14        -4.4328    4.4784    1.5552 C.2       1 <0>        -0.1833
     17 C15        -4.7134    5.4837    0.7792 C.2       1 <0>        -0.0845
     18 C16        -3.7742    6.0250   -0.2575 C.3       1 <0>        -0.0127
     19 C17        -4.5038    6.0668   -1.6026 C.3       1 <0>        -0.1044
     20 C18        -5.7945    6.8752   -1.4512 C.3       1 <0>        -0.0977
     21 C19        -6.7246    6.1861   -0.4518 C.3       1 <0>        -0.1226
     22 H3         -6.9183    5.1651   -0.7806 H         1 <0>         0.0654
     23 C20        -6.0644    6.1602    0.9305 C.3       1 <0>        -0.0623
     24 C21        -8.0254    6.9428   -0.3726 C.2       1 <0>         0.4634
     25 O1         -8.1910    7.9318   -1.0467 O.co2     1 <0>        -0.6414
     26 C22        -3.4359    7.4660    0.1297 C.3       1 <0>        -0.1468
     27 H4          2.8023    0.8810   -1.0400 H         1 <0>         0.0668
     28 H5          3.2445    1.6575    0.4994 H         1 <0>         0.0677
     29 H6          2.3819    0.1006    0.5035 H         1 <0>         0.0623
     30 H7          0.0021   -0.0041    0.0020 H         1 <0>         0.1178
     31 H8         -2.1418    1.1977    0.0190 H         1 <0>         0.1194
     32 H9          2.7462    4.1248   -1.0342 H         1 <0>         0.0680
     33 H10         2.3009    4.8866    0.5116 H         1 <0>         0.0685
     34 H11         3.2127    3.3579    0.5029 H         1 <0>         0.0667
     35 H12         0.7531    5.6977    0.6790 H         1 <0>         0.0743
     36 H13         0.2427    5.6834   -1.0211 H         1 <0>         0.0725
     37 H14        -1.3559    7.0221    0.1378 H         1 <0>         0.0800
     38 H15        -1.5041    5.8349    1.4543 H         1 <0>         0.0652
     39 H16        -3.2679    2.7310    1.8037 H         1 <0>         0.0634
     40 H17        -2.4050    4.2460    2.1713 H         1 <0>         0.0703
     41 H18        -5.1674    4.1606    2.2802 H         1 <0>         0.1054
     42 H19        -3.8645    6.5382   -2.3491 H         1 <0>         0.0581
     43 H20        -4.7450    5.0516   -1.9176 H         1 <0>         0.0565
     44 H21        -5.5549    7.8762   -1.0923 H         1 <0>         0.0645
     45 H22        -6.2926    6.9467   -2.4180 H         1 <0>         0.0605
     46 H23        -5.9421    7.1789    1.2987 H         1 <0>         0.0658
     47 H24        -6.6840    5.5908    1.6233 H         1 <0>         0.0714
     48 H25        -2.8028    7.9097   -0.6387 H         1 <0>         0.0543
     49 H26        -4.3559    8.0434    0.2204 H         1 <0>         0.0649
     50 H27        -2.9079    7.4716    1.0833 H         1 <0>         0.0560
     51 O2         -9.0001    6.5181    0.4467 O.co2     1 <0>        -0.7733
@<TRIPOS>BOND
     1    1    2 1
     2    1   27 1
     3    1   28 1
     4    1   29 1
     5    2    7 ar
     6    2    3 ar
     7    3    4 ar
     8    3   30 1
     9    4    5 ar
    10    4   31 1
    11    5   13 1
    12    5    6 ar
    13    6    7 ar
    14    6    9 1
    15    7    8 1
    16    8   32 1
    17    8   33 1
    18    8   34 1
    19    9   10 1
    20    9   35 1
    21    9   36 1
    22   10   11 1
    23   10   37 1
    24   10   38 1
    25   11   12 1
    26   11   18 1
    27   11   13 1
    28   13   14 1
    29   13   15 1
    30   15   16 1
    31   15   39 1
    32   15   40 1
    33   16   17 2
    34   16   41 1
    35   17   23 1
    36   17   18 1
    37   18   19 1
    38   18   26 1
    39   19   20 1
    40   19   42 1
    41   19   43 1
    42   20   21 1
    43   20   44 1
    44   20   45 1
    45   21   22 1
    46   21   23 1
    47   21   24 1
    48   23   46 1
    49   23   47 1
    50   24   25 2
    51   24   51 1
    52   26   48 1
    53   26   49 1
    54   26   50 1
@<TRIPOS>MOLECULE
ZINC21344880
   43    46     0     0     0
SMALL
USER_CHARGES
(5S)-5-(3,4-dichlorophenyl)-3-(indan-2-ylamino)cyclohex-2-en-1-one
@<TRIPOS>ATOM
      1 C1        -10.5854    6.8572   -4.7274 C.ar      1 <0>        -0.1310
      2 C2        -11.0903    5.8218   -3.9631 C.ar      1 <0>        -0.1295
      3 C3        -10.2504    5.1035   -3.1349 C.ar      1 <0>        -0.1153
      4 C4         -8.9031    5.4173   -3.0669 C.ar      1 <0>        -0.0868
      5 C5         -8.3984    6.4526   -3.8310 C.ar      1 <0>        -0.0902
      6 C6         -9.2422    7.1714   -4.6613 C.ar      1 <0>        -0.1149
      7 C7         -6.9123    6.5954   -3.5814 C.3       1 <0>        -0.0584
      8 C8         -6.6481    5.8309   -2.2669 C.3       1 <0>         0.0988
      9 C9         -7.7906    4.7933   -2.2463 C.3       1 <0>        -0.0774
     10 N1         -5.3425    5.1672   -2.3037 N.2       1 <0>        -0.6991
     11 C10        -4.7148    4.8337   -1.1413 C.2       1 <0>         0.2464
     12 C11        -5.3070    5.1201    0.0382 C.2       1 <0>        -0.5423
     13 C12        -4.7034    4.8038    1.2592 C.2       1 <0>         0.3796
     14 O1         -5.2694    5.0769    2.2994 O.3       1 <0>        -0.5958
     15 C13        -3.3574    4.1275    1.2968 C.3       1 <0>        -0.1492
     16 C14        -2.5620    4.5251    0.0493 C.3       1 <0>        -0.0366
     17 H1         -2.3527    5.6050    0.0580 H         1 <0>         0.0853
     18 C15        -3.3736    4.1522   -1.1945 C.3       1 <0>        -0.0549
     19 C16        -1.2469    3.7894    0.0334 C.ar      1 <0>        -0.0434
     20 C17        -0.0592    4.4974    0.0258 C.ar      1 <0>        -0.1012
     21 C18         1.1476    3.8239    0.0112 C.ar      1 <0>        -0.0977
     22 C19         1.1677    2.4406    0.0040 C.ar      1 <0>        -0.0423
     23 C20        -0.0215    1.7317    0.0116 C.ar      1 <0>        -0.0268
     24 C21        -1.2286    2.4075    0.0209 C.ar      1 <0>        -0.0937
     25 Cl1         0.0021   -0.0041    0.0020 Cl        1 <0>        -0.0566
     26 Cl2         2.6833    1.5942   -0.0150 Cl        1 <0>        -0.0610
     27 H2        -11.2408    7.4197   -5.3759 H         1 <0>         0.1165
     28 H3        -12.1405    5.5750   -4.0133 H         1 <0>         0.1166
     29 H4        -10.6455    4.2948   -2.5380 H         1 <0>         0.1145
     30 H5         -8.8487    7.9806   -5.2584 H         1 <0>         0.1145
     31 H6         -6.3554    6.1575   -4.4229 H         1 <0>         0.0820
     32 H7         -6.6570    7.6612   -3.4878 H         1 <0>         0.0588
     33 H8         -6.5799    6.4629   -1.3692 H         1 <0>         0.0567
     34 H9         -8.1501    4.6058   -1.2238 H         1 <0>         0.0622
     35 H10        -7.4839    3.8428   -2.7072 H         1 <0>         0.0764
     36 H11        -6.2893    5.6150    0.0221 H         1 <0>         0.0905
     37 H12        -2.8133    4.4436    2.1990 H         1 <0>         0.0683
     38 H13        -3.4957    3.0364    1.3155 H         1 <0>         0.0751
     39 H14        -3.5172    3.0621   -1.2254 H         1 <0>         0.0686
     40 H15        -2.8330    4.4765   -2.0959 H         1 <0>         0.0707
     41 H16        -0.0746    5.5772    0.0310 H         1 <0>         0.1391
     42 H17         2.0749    4.3775    0.0056 H         1 <0>         0.1397
     43 H18        -2.1567    1.8552    0.0227 H         1 <0>         0.1438
@<TRIPOS>BOND
     1    1    6 ar
     2    1    2 ar
     3    1   27 1
     4    2    3 ar
     5    2   28 1
     6    3    4 ar
     7    3   29 1
     8    4    9 1
     9    4    5 ar
    10    5    6 ar
    11    5    7 1
    12    6   30 1
    13    7    8 1
    14    7   31 1
    15    7   32 1
    16    8    9 1
    17    8   10 1
    18    8   33 1
    19    9   34 1
    20    9   35 1
    21   10   11 2
    22   11   18 1
    23   11   12 1
    24   12   13 2
    25   12   36 1
    26   13   14 1
    27   13   15 1
    28   15   16 1
    29   15   37 1
    30   15   38 1
    31   16   17 1
    32   16   18 1
    33   16   19 1
    34   18   39 1
    35   18   40 1
    36   19   24 ar
    37   19   20 ar
    38   20   21 ar
    39   20   41 1
    40   21   22 ar
    41   21   42 1
    42   22   23 ar
    43   22   26 1
    44   23   24 ar
    45   23   25 1
    46   24   43 1
@<TRIPOS>MOLECULE
ZINC13468603
   45    47     0     0     0
SMALL
USER_CHARGES

@<TRIPOS>ATOM
      1 C1          0.3715    1.4933   -0.3712 C.3       1 <0>        -0.1384
      2 C2          0.3757   -0.0363   -0.3346 C.3       1 <0>        -0.0506
      3 C3          1.3771   -0.5704   -1.3623 C.3       1 <0>        -0.1446
      4 C4          1.4166   -2.0743   -1.2855 C.2       1 <0>         0.4019
      5 C5          1.1512   -2.7318   -0.0835 C.2       1 <0>        -0.4994
      6 C6          0.8423   -2.0193    1.0761 C.2       1 <0>         0.3958
      7 O1          0.6135   -2.6219    2.1134 O.2       1 <0>        -0.5142
      8 C7          0.7886   -0.5140    1.0602 C.3       1 <0>        -0.1493
      9 C8          1.1972   -4.1993   -0.0382 C.2       1 <0>         0.2933
     10 N1          0.9510   -4.8255    1.0798 N.2       1 <0>        -0.5423
     11 C9          0.8803   -6.1922    1.0974 C.ar      1 <0>         0.1719
     12 C10         0.1053   -6.8668    0.1534 C.ar      1 <0>        -0.1738
     13 C11         0.0379   -8.2449    0.1762 C.ar      1 <0>        -0.0988
     14 C12         0.7357   -8.9629    1.1324 C.ar      1 <0>        -0.1579
     15 C13         1.5067   -8.3078    2.0736 C.ar      1 <0>        -0.1044
     16 C14         1.5911   -6.9231    2.0612 C.ar      1 <0>        -0.1288
     17 S1          2.5803   -6.0858    3.2550 S.3       1 <0>         0.0320
     18 C15         3.3975   -7.3861    4.1189 C.ar      1 <0>        -0.1442
     19 C16         4.5877   -7.9087    3.6272 C.ar      1 <0>        -0.0693
     20 C17         5.2252   -8.9276    4.3068 C.ar      1 <0>        -0.1321
     21 C18         4.6808   -9.4281    5.4756 C.ar      1 <0>        -0.1012
     22 C19         3.4965   -8.9104    5.9679 C.ar      1 <0>        -0.1326
     23 C20         2.8563   -7.8876    5.2967 C.ar      1 <0>        -0.0683
     24 O2          1.6828   -2.7242   -2.2845 O.3       1 <0>        -0.5762
     25 C21        -1.0242   -0.5599   -0.6614 C.3       1 <0>        -0.1431
     26 H1          1.3701    1.8650   -0.1414 H         1 <0>         0.0518
     27 H2          0.0775    1.8321   -1.3646 H         1 <0>         0.0513
     28 H3         -0.3360    1.8724    0.3662 H         1 <0>         0.0519
     29 H4          1.0696   -0.2652   -2.3625 H         1 <0>         0.0716
     30 H5          2.3676   -0.1692   -1.1476 H         1 <0>         0.0776
     31 H6          1.7715   -0.1121    1.3062 H         1 <0>         0.0743
     32 H7          0.0599   -0.1685    1.7935 H         1 <0>         0.0697
     33 H8          1.4349   -4.7599   -0.9301 H         1 <0>         0.0760
     34 H9         -0.4414   -6.3110   -0.5941 H         1 <0>         0.1179
     35 H10        -0.5623   -8.7658   -0.5552 H         1 <0>         0.1129
     36 H11         0.6768  -10.0412    1.1429 H         1 <0>         0.1117
     37 H12         2.0477   -8.8746    2.8169 H         1 <0>         0.1123
     38 H13         5.0132   -7.5186    2.7144 H         1 <0>         0.1291
     39 H14         6.1500   -9.3345    3.9251 H         1 <0>         0.1243
     40 H15         5.1814  -10.2253    6.0049 H         1 <0>         0.1223
     41 H16         3.0740   -9.3039    6.8806 H         1 <0>         0.1245
     42 H17         1.9339   -7.4808    5.6841 H         1 <0>         0.1308
     43 H18        -1.3157   -0.2217   -1.6558 H         1 <0>         0.0474
     44 H19        -1.0199   -1.6496   -0.6350 H         1 <0>         0.0691
     45 H20        -1.7345   -0.1814    0.0738 H         1 <0>         0.0482
@<TRIPOS>BOND
     1    1    2 1
     2    1   26 1
     3    1   27 1
     4    1   28 1
     5    2    8 1
     6    2    3 1
     7    2   25 1
     8    3    4 1
     9    3   29 1
    10    3   30 1
    11    4    5 2
    12    4   24 1
    13    5    6 1
    14    5    9 1
    15    6    7 2
    16    6    8 1
    17    8   31 1
    18    8   32 1
    19    9   10 2
    20    9   33 1
    21   10   11 1
    22   11   16 ar
    23   11   12 ar
    24   12   13 ar
    25   12   34 1
    26   13   14 ar
    27   13   35 1
    28   14   15 ar
    29   14   36 1
    30   15   16 ar
    31   15   37 1
    32   16   17 1
    33   17   18 1
    34   18   23 ar
    35   18   19 ar
    36   19   20 ar
    37   19   38 1
    38   20   21 ar
    39   20   39 1
    40   21   22 ar
    41   21   40 1
    42   22   23 ar
    43   22   41 1
    44   23   42 1
    45   25   43 1
    46   25   44 1
    47   25   45 1
@<TRIPOS>MOLECULE
ZINC44024414
   38    41     0     0     0
SMALL
USER_CHARGES

@<TRIPOS>ATOM
      1 C1         -0.0097    1.3894    0.1219 C.ar      1 <0>        -0.1181
      2 C2          1.0195    1.8832   -0.6594 C.ar      1 <0>        -0.1260
      3 C3          2.2281    1.2169   -0.7180 C.ar      1 <0>         0.1166
      4 C4          2.4098    0.0369    0.0180 C.ar      1 <0>        -0.0742
      5 C5          1.3626   -0.4550    0.8063 C.ar      1 <0>        -0.1128
      6 C6          0.1615    0.2235    0.8527 C.ar      1 <0>         0.0936
      7 F1         -0.8503   -0.2499    1.6125 F         1 <0>        -0.1327
      8 C7          3.6900   -0.6783   -0.0383 C.2       1 <0>        -0.0020
      9 C8          3.7160   -2.0372    0.0570 C.2       1 <0>         0.0283
     10 C9          2.4905   -2.7780    0.0659 C.1       1 <0>         0.2699
     11 N1          1.5183   -3.3656    0.0729 N.1       1 <0>        -0.4151
     12 C10         5.0097   -2.7472    0.1512 C.ar      1 <0>         0.4003
     13 N2          6.1415   -2.0466    0.1474 N.ar      1 <0>        -0.6008
     14 C11         7.3243   -2.6247    0.2279 C.ar      1 <0>         0.4823
     15 O1          8.4535   -1.8767    0.2217 O.3       1 <0>        -0.6624
     16 C12         7.4016   -4.0417    0.3219 C.ar      1 <0>        -0.2877
     17 C13         8.5918   -4.8881    0.4166 C.2       1 <0>        -0.0215
     18 C14         8.3914   -6.2197    0.4966 C.2       1 <0>        -0.2115
     19 S1          6.6313   -6.4271    0.4519 S.3       1 <0>         0.0325
     20 C15         6.1643   -4.7207    0.3225 C.ar      1 <0>         0.1574
     21 N3          5.0213   -4.0724    0.2437 N.ar      1 <0>        -0.5604
     22 C16         9.4353   -7.2898    0.6004 C.3       1 <0>        -0.0232
     23 C17        10.7939   -6.6792    0.2279 C.3       1 <0>        -0.1125
     24 C18        10.9637   -5.3603    0.9878 C.3       1 <0>        -0.1204
     25 C19        10.0045   -4.3104    0.4255 C.3       1 <0>        -0.0556
     26 F2          3.2318    1.7001   -1.4823 F         1 <0>        -0.1214
     27 H1         -0.9507    1.9176    0.1664 H         1 <0>         0.1472
     28 H2          0.8776    2.7920   -1.2254 H         1 <0>         0.1505
     29 H3          1.4940   -1.3631    1.3759 H         1 <0>         0.1475
     30 H4          4.6116   -0.1274   -0.1553 H         1 <0>         0.1763
     31 H5          9.4712   -7.6699    1.6213 H         1 <0>         0.0717
     32 H6          9.1975   -8.1024   -0.0862 H         1 <0>         0.0709
     33 H7         11.5925   -7.3669    0.5060 H         1 <0>         0.0651
     34 H8         10.8280   -6.4901   -0.8450 H         1 <0>         0.0649
     35 H9         10.7477   -5.5205    2.0441 H         1 <0>         0.0607
     36 H10        11.9897   -5.0089    0.8784 H         1 <0>         0.0620
     37 H11        10.2996   -4.0516   -0.5913 H         1 <0>         0.0712
     38 H12        10.0308   -3.4197    1.0533 H         1 <0>         0.0892
@<TRIPOS>BOND
     1    1    6 ar
     2    1    2 ar
     3    1   27 1
     4    2    3 ar
     5    2   28 1
     6    3    4 ar
     7    3   26 1
     8    4    5 ar
     9    4    8 1
    10    5    6 ar
    11    5   29 1
    12    6    7 1
    13    8    9 2
    14    8   30 1
    15    9   10 1
    16    9   12 1
    17   10   11 3
    18   12   21 ar
    19   12   13 ar
    20   13   14 ar
    21   14   15 1
    22   14   16 ar
    23   16   20 ar
    24   16   17 1
    25   17   25 1
    26   17   18 2
    27   18   19 1
    28   18   22 1
    29   19   20 1
    30   20   21 ar
    31   22   23 1
    32   22   31 1
    33   22   32 1
    34   23   24 1
    35   23   33 1
    36   23   34 1
    37   24   25 1
    38   24   35 1
    39   24   36 1
    40   25   37 1
    41   25   38 1
@<TRIPOS>MOLECULE
ZINC01408287
   36    38     0     0     0
SMALL
USER_CHARGES

@<TRIPOS>ATOM
      1 C1         -0.0184    1.5028    0.0103 C.3       1 <0>        -0.1133
      2 C2          0.0021   -0.0041    0.0020 C.ar      1 <0>        -0.0600
      3 C3          0.0058   -0.6889   -1.1977 C.ar      1 <0>        -0.1150
      4 C4          0.0246   -2.0713   -1.2061 C.ar      1 <0>        -0.1095
      5 C5          0.0397   -2.7728   -0.0143 C.ar      1 <0>        -0.1183
      6 C6          0.0365   -2.0938    1.1883 C.ar      1 <0>        -0.0919
      7 C7          0.0230   -0.7053    1.1999 C.ar      1 <0>         0.1501
      8 N1          0.0246   -0.0133    2.4186 N.am      1 <0>        -0.5322
      9 C8         -1.0696    0.3575    3.1197 C.2       1 <0>         0.5016
     10 O1         -2.2322    0.1632    2.8280 O.2       1 <0>        -0.4620
     11 C9         -0.5443    1.0559    4.3285 C.2       1 <0>         0.1741
     12 C10        -1.2927    1.6266    5.3681 C.2       1 <0>        -0.2548
     13 C11        -0.6499    2.2418    6.4250 C.2       1 <0>         0.3474
     14 O2          0.6994    2.2935    6.4570 O.3       1 <0>        -0.5063
     15 C12        -1.4355    2.8409    7.5162 C.ar      1 <0>        -0.0970
     16 C13        -2.8337    2.7841    7.4893 C.ar      1 <0>        -0.0735
     17 C14        -3.5624    3.3467    8.5145 C.ar      1 <0>        -0.1228
     18 C15        -2.9142    3.9676    9.5705 C.ar      1 <0>        -0.0228
     19 C16        -1.5300    4.0281    9.6037 C.ar      1 <0>        -0.1231
     20 C17        -0.7879    3.4649    8.5884 C.ar      1 <0>        -0.0570
     21 Cl1        -3.8408    4.6736   10.8577 Cl        1 <0>        -0.0774
     22 N2          0.7798    1.0251    4.2170 N.2       1 <0>        -0.5119
     23 C18         1.1146    0.3901    3.0931 C.2       1 <0>         0.4824
     24 S1          2.7248    0.1268    2.5744 S.2       1 <0>        -0.6056
     25 H1          1.0042    1.8801    0.0026 H         1 <0>         0.0801
     26 H2         -0.5455    1.8639   -0.8728 H         1 <0>         0.0692
     27 H3         -0.5286    1.8543    0.9071 H         1 <0>         0.0564
     28 H4         -0.0063   -0.1439   -2.1300 H         1 <0>         0.1272
     29 H5          0.0271   -2.6045   -2.1453 H         1 <0>         0.1250
     30 H6          0.0536   -3.8526   -0.0240 H         1 <0>         0.1270
     31 H7          0.0480   -2.6421    2.1187 H         1 <0>         0.1224
     32 H8         -2.3716    1.5852    5.3425 H         1 <0>         0.1335
     33 H9         -3.3401    2.3008    6.6668 H         1 <0>         0.1429
     34 H10        -4.6414    3.3039    8.4949 H         1 <0>         0.1353
     35 H11        -1.0317    4.5139   10.4296 H         1 <0>         0.1347
     36 H12         0.2909    3.5085    8.6180 H         1 <0>         0.1450
@<TRIPOS>BOND
     1    1    2 1
     2    1   25 1
     3    1   26 1
     4    1   27 1
     5    2    7 ar
     6    2    3 ar
     7    3    4 ar
     8    3   28 1
     9    4    5 ar
    10    4   29 1
    11    5    6 ar
    12    5   30 1
    13    6    7 ar
    14    6   31 1
    15    7    8 1
    16    8   23 1
    17    8    9 am
    18    9   10 2
    19    9   11 1
    20   11   12 1
    21   11   22 2
    22   12   13 2
    23   12   32 1
    24   13   14 1
    25   13   15 1
    26   15   20 ar
    27   15   16 ar
    28   16   17 ar
    29   16   33 1
    30   17   18 ar
    31   17   34 1
    32   18   19 ar
    33   18   21 1
    34   19   20 ar
    35   19   35 1
    36   20   36 1
    37   22   23 1
    38   23   24 2
@<TRIPOS>MOLECULE
ZINC09311867
   39    43     0     0     0
SMALL
USER_CHARGES

@<TRIPOS>ATOM
      1 C1         -0.1071    1.8096    0.0656 C.3       1 <0>        -0.1283
      2 S1         -0.1744   -0.0024    0.1181 S.3       1 <0>        -0.0543
      3 C2          0.8352   -0.4267    1.4984 C.ar      1 <0>         0.3454
      4 N1          0.9896   -1.7000    1.7953 N.ar      1 <0>        -0.5596
      5 C3          1.7518   -2.0893    2.8418 C.ar      1 <0>         0.1959
      6 C4          2.0218   -3.4631    3.3051 C.ar      1 <0>        -0.1093
      7 C5          1.5352   -4.6708    2.7527 C.ar      1 <0>         0.0155
      8 C6          1.8927   -5.8602    3.3152 C.ar      1 <0>        -0.1604
      9 C7          2.7356   -5.8775    4.4325 C.ar      1 <0>         0.2038
     10 N2          3.1874   -4.7420    4.9484 N.ar      1 <0>        -0.4411
     11 C8          2.8613   -3.5790    4.4286 C.ar      1 <0>         0.1033
     12 S2          3.2668   -1.9016    4.8484 S.3       1 <0>         0.1302
     13 C9          2.3588   -1.0641    3.5781 C.ar      1 <0>        -0.3020
     14 C10         2.1746    0.2666    3.2371 C.ar      1 <0>         0.4933
     15 N3          1.4091    0.5521    2.1871 N.ar      1 <0>        -0.5959
     16 O1          2.7638    1.2543    3.9546 O.3       1 <0>        -0.6701
     17 C11         3.1251   -7.1715    5.0429 C.ar      1 <0>        -0.0331
     18 C12         3.4751   -8.2502    4.2323 C.ar      1 <0>        -0.0963
     19 C13         3.8371   -9.4520    4.8059 C.ar      1 <0>        -0.1238
     20 C14         3.8528   -9.5875    6.1825 C.ar      1 <0>        -0.1146
     21 C15         3.5060   -8.5206    6.9919 C.ar      1 <0>        -0.1240
     22 C16         3.1483   -7.3122    6.4295 C.ar      1 <0>        -0.0822
     23 C17         1.2529   -7.0022    2.5536 C.3       1 <0>        -0.0685
     24 C18         0.1204   -6.3522    1.7295 C.3       1 <0>        -0.1215
     25 C19         0.6264   -4.9020    1.5676 C.3       1 <0>        -0.0815
     26 H1          0.9259    2.1311   -0.0669 H         1 <0>         0.0849
     27 H2         -0.7101    2.1716   -0.7672 H         1 <0>         0.0979
     28 H3         -0.4968    2.2148    0.9995 H         1 <0>         0.0850
     29 H4          3.4625   -8.1457    3.1574 H         1 <0>         0.1261
     30 H5          4.1085  -10.2884    4.1789 H         1 <0>         0.1241
     31 H6          4.1365  -10.5300    6.6270 H         1 <0>         0.1212
     32 H7          3.5197   -8.6323    8.0660 H         1 <0>         0.1240
     33 H8          2.8824   -6.4785    7.0625 H         1 <0>         0.1280
     34 H9          1.9813   -7.4709    1.8919 H         1 <0>         0.0794
     35 H10         0.8428   -7.7366    3.2469 H         1 <0>         0.0767
     36 H11         0.0182   -6.8383    0.7592 H         1 <0>         0.0789
     37 H12        -0.8214   -6.3758    2.2778 H         1 <0>         0.0726
     38 H13        -0.2105   -4.2040    1.5900 H         1 <0>         0.0920
     39 H14         1.1836   -4.7969    0.6367 H         1 <0>         0.0884
@<TRIPOS>BOND
     1    1    2 1
     2    1   26 1
     3    1   27 1
     4    1   28 1
     5    2    3 1
     6    3   15 ar
     7    3    4 ar
     8    4    5 ar
     9    5   13 ar
    10    5    6 1
    11    6   11 ar
    12    6    7 ar
    13    7   25 1
    14    7    8 ar
    15    8    9 ar
    16    8   23 1
    17    9   10 ar
    18    9   17 1
    19   10   11 ar
    20   11   12 1
    21   12   13 1
    22   13   14 ar
    23   14   15 ar
    24   14   16 1
    25   17   22 ar
    26   17   18 ar
    27   18   19 ar
    28   18   29 1
    29   19   20 ar
    30   19   30 1
    31   20   21 ar
    32   20   31 1
    33   21   22 ar
    34   21   32 1
    35   22   33 1
    36   23   24 1
    37   23   34 1
    38   23   35 1
    39   24   25 1
    40   24   36 1
    41   24   37 1
    42   25   38 1
    43   25   39 1
@<TRIPOS>MOLECULE
ZINC36173557
   40    40     0     0     0
SMALL
USER_CHARGES

@<TRIPOS>ATOM
      1 C1          0.0116    1.5821   -0.2995 C.3       1 <0>        -0.0999
      2 C2          0.0886    0.0782   -0.2409 C.ar      1 <0>        -0.1236
      3 C3          0.0472   -0.6576   -1.4033 C.ar      1 <0>        -0.0703
      4 C4          0.1194   -2.0550   -1.3474 C.ar      1 <0>        -0.0600
      5 C5          0.2332   -2.6963   -0.1073 C.ar      1 <0>        -0.0450
      6 C6          0.2737   -1.9510    1.0487 C.ar      1 <0>        -0.2047
      7 C7          0.2070   -0.5632    0.9870 C.ar      1 <0>         0.1138
      8 O1          0.2530    0.1673    2.1298 O.3       1 <0>        -0.3175
      9 C8          0.3752   -0.5547    3.3569 C.3       1 <0>         0.0289
     10 C9          0.3109   -4.1998   -0.0394 C.3       1 <0>        -0.1151
     11 C10         0.0753   -2.8452   -2.5844 C.2       1 <0>        -0.0640
     12 C11         1.2149   -3.3660   -3.0956 C.2       1 <0>        -0.1843
     13 C12         1.1849   -4.0597   -4.3269 C.2       1 <0>         0.5044
     14 O2          0.1533   -4.0911   -4.9873 O.co2     1 <0>        -0.6680
     15 O3          2.1904   -4.6295   -4.7337 O.co2     1 <0>        -0.7051
     16 C13        -1.2391   -3.0762   -3.2845 C.3       1 <0>        -0.0952
     17 C14        -1.5679   -1.8680   -4.1637 C.3       1 <0>        -0.0696
     18 C15        -0.5079   -1.7302   -5.2583 C.3       1 <0>        -0.1299
     19 C16        -2.9424   -2.0640   -4.8065 C.3       1 <0>        -0.1392
     20 H1          1.0169    1.9943   -0.3865 H         1 <0>         0.0637
     21 H2         -0.5802    1.8822   -1.1643 H         1 <0>         0.0626
     22 H3         -0.4576    1.9576    0.6098 H         1 <0>         0.0654
     23 H4         -0.0410   -0.1582   -2.3569 H         1 <0>         0.1294
     24 H5          0.3615   -2.4445    2.0053 H         1 <0>         0.1237
     25 H6         -0.4775   -1.2240    3.4712 H         1 <0>         0.0524
     26 H7          1.2959   -1.1381    3.3450 H         1 <0>         0.0528
     27 H8          0.4006    0.1471    4.1904 H         1 <0>         0.0951
     28 H9          1.3557   -4.5086   -0.0074 H         1 <0>         0.0708
     29 H10        -0.1990   -4.5497    0.8582 H         1 <0>         0.0599
     30 H11        -0.1680   -4.6285   -0.9197 H         1 <0>         0.0762
     31 H12         2.1474   -3.2516   -2.5629 H         1 <0>         0.0891
     32 H13        -1.1679   -3.9690   -3.9058 H         1 <0>         0.1400
     33 H14        -2.0268   -3.2113   -2.5433 H         1 <0>         0.0303
     34 H15        -1.5781   -0.9657   -3.5522 H         1 <0>         0.0434
     35 H16         0.4843   -1.7470   -4.8074 H         1 <0>         0.0494
     36 H17        -0.6016   -2.5581   -5.9611 H         1 <0>         0.0851
     37 H18        -0.6512   -0.7874   -5.7863 H         1 <0>         0.0133
     38 H19        -3.6976   -2.1621   -4.0267 H         1 <0>         0.0411
     39 H20        -3.1766   -1.2032   -5.4329 H         1 <0>         0.0423
     40 H21        -2.9322   -2.9662   -5.4180 H         1 <0>         0.0579
@<TRIPOS>BOND
     1    1    2 1
     2    1   20 1
     3    1   21 1
     4    1   22 1
     5    2    7 ar
     6    2    3 ar
     7    3    4 ar
     8    3   23 1
     9    4    5 ar
    10    4   11 1
    11    5    6 ar
    12    5   10 1
    13    6    7 ar
    14    6   24 1
    15    7    8 1
    16    8    9 1
    17    9   25 1
    18    9   26 1
    19    9   27 1
    20   10   28 1
    21   10   29 1
    22   10   30 1
    23   11   12 2
    24   11   16 1
    25   12   13 1
    26   12   31 1
    27   13   14 2
    28   13   15 1
    29   16   17 1
    30   16   32 1
    31   16   33 1
    32   17   18 1
    33   17   19 1
    34   17   34 1
    35   18   35 1
    36   18   36 1
    37   18   37 1
    38   19   38 1
    39   19   39 1
    40   19   40 1
@<TRIPOS>MOLECULE
ZINC41921963
   33    33     0     0     0
SMALL
USER_CHARGES

@<TRIPOS>ATOM
      1 C1         -0.0187    1.5258    0.0104 C.3       1 <0>        -0.1487
      2 C2          0.0021   -0.0041    0.0020 C.3       1 <0>        -0.1351
      3 C3         -1.4333   -0.5336    0.0129 C.3       1 <0>         0.0875
      4 C4         -2.1622   -0.0344   -1.2080 C.ar      1 <0>        -0.0348
      5 C5         -1.4665    0.2065   -2.3780 C.ar      1 <0>        -0.0949
      6 C6         -2.1350    0.6644   -3.4979 C.ar      1 <0>        -0.1267
      7 C7         -3.4994    0.8810   -3.4480 C.ar      1 <0>        -0.1041
      8 C8         -4.1953    0.6392   -2.2783 C.ar      1 <0>        -0.1264
      9 C9         -3.5274    0.1772   -1.1596 C.ar      1 <0>        -0.0969
     10 C10        -4.2281    1.3811   -4.6686 C.3       1 <0>        -0.1067
     11 C11        -1.4129   -2.0405    0.0046 C.2       1 <0>         0.4887
     12 O1         -1.9237   -2.6621    0.9206 O.co2     1 <0>        -0.6750
     13 O2         -0.8855   -2.6379   -0.9181 O.co2     1 <0>        -0.6738
     14 O3         -2.1022   -0.0728    1.1886 O.3       1 <0>        -0.3531
     15 C12        -1.4885   -0.4929    2.4088 C.3       1 <0>         0.0049
     16 C13        -2.2844    0.0552    3.5950 C.3       1 <0>         0.4606
     17 F1         -3.5954   -0.4301    3.5412 F         1 <0>        -0.1757
     18 F2         -1.6836   -0.3561    4.7896 F         1 <0>        -0.1846
     19 F3         -2.3019    1.4530    3.5389 F         1 <0>        -0.1870
     20 H1          1.0039    1.9031    0.0027 H         1 <0>         0.0473
     21 H2         -0.5459    1.8868   -0.8726 H         1 <0>         0.0582
     22 H3         -0.5289    1.8773    0.9072 H         1 <0>         0.0555
     23 H4          0.5123   -0.3556   -0.8948 H         1 <0>         0.0813
     24 H5          0.5293   -0.3651    0.8851 H         1 <0>         0.0605
     25 H6         -0.4005    0.0373   -2.4170 H         1 <0>         0.1237
     26 H7         -1.5914    0.8533   -4.4118 H         1 <0>         0.1164
     27 H8         -5.2612    0.8087   -2.2392 H         1 <0>         0.1155
     28 H9         -4.0716   -0.0152   -0.2468 H         1 <0>         0.1251
     29 H10        -4.5686    0.5324   -5.2617 H         1 <0>         0.0644
     30 H11        -5.0872    1.9769   -4.3602 H         1 <0>         0.0604
     31 H12        -3.5555    1.9959   -5.2668 H         1 <0>         0.0604
     32 H13        -1.4749   -1.5819    2.4525 H         1 <0>         0.1364
     33 H14        -0.4670   -0.1148    2.4508 H         1 <0>         0.0765
@<TRIPOS>BOND
     1    1    2 1
     2    1   20 1
     3    1   21 1
     4    1   22 1
     5    2    3 1
     6    2   23 1
     7    2   24 1
     8    3    4 1
     9    3   11 1
    10    3   14 1
    11    4    9 ar
    12    4    5 ar
    13    5    6 ar
    14    5   25 1
    15    6    7 ar
    16    6   26 1
    17    7    8 ar
    18    7   10 1
    19    8    9 ar
    20    8   27 1
    21    9   28 1
    22   10   29 1
    23   10   30 1
    24   10   31 1
    25   11   12 2
    26   11   13 1
    27   14   15 1
    28   15   16 1
    29   15   32 1
    30   15   33 1
    31   16   17 1
    32   16   18 1
    33   16   19 1
@<TRIPOS>MOLECULE
ZINC41954676
   45    45     0     0     0
SMALL
USER_CHARGES

@<TRIPOS>ATOM
      1 C1          2.4869   -1.6504   -4.3323 C.3       1 <0>        -0.1491
      2 C2          1.3619   -1.5073   -3.3053 C.3       1 <0>        -0.1241
      3 C3          1.7101   -2.3128   -2.0519 C.3       1 <0>        -0.1224
      4 C4          0.5851   -2.1697   -1.0249 C.3       1 <0>         0.0439
      5 C5          0.3798   -0.6896   -0.6963 C.3       1 <0>        -0.1174
      6 C6          0.9536   -2.9167    0.2311 C.2       1 <0>         0.4797
      7 O1          2.0150   -2.6895    0.7863 O.co2     1 <0>        -0.6977
      8 O2          0.1902   -3.7481    0.6919 O.co2     1 <0>        -0.6769
      9 O3         -0.6231   -2.7102   -1.5634 O.3       1 <0>        -0.3680
     10 C7         -0.5654   -4.1135   -1.8268 C.3       1 <0>         0.1068
     11 H1          0.3220   -4.5355   -1.3550 H         1 <0>         0.0761
     12 C8         -0.4995   -4.3466   -3.3375 C.3       1 <0>        -0.1345
     13 C9         -0.4377   -5.8491   -3.6195 C.3       1 <0>        -0.0929
     14 H2          0.4496   -6.2712   -3.1477 H         1 <0>         0.0706
     15 C10        -1.6874   -6.5262   -3.0530 C.3       1 <0>        -0.0993
     16 C11        -1.7533   -6.2931   -1.5423 C.3       1 <0>        -0.0612
     17 C12        -1.8150   -4.7905   -1.2603 C.3       1 <0>        -0.1001
     18 C13        -0.5077   -6.8854   -0.8801 C.3       1 <0>        -0.1379
     19 C14        -3.0029   -6.9701   -0.9758 C.3       1 <0>        -0.1363
     20 C15        -0.3719   -6.0822   -5.1302 C.3       1 <0>        -0.1426
     21 H3          3.4176   -1.2755   -3.9064 H         1 <0>         0.0501
     22 H4          2.6058   -2.7011   -4.5970 H         1 <0>         0.0484
     23 H5          2.2389   -1.0766   -5.2253 H         1 <0>         0.0460
     24 H6          1.2431   -0.4567   -3.0406 H         1 <0>         0.0592
     25 H7          0.4313   -1.8822   -3.7312 H         1 <0>         0.0653
     26 H8          1.8290   -3.3635   -2.3166 H         1 <0>         0.0528
     27 H9          2.6408   -1.9379   -1.6260 H         1 <0>         0.0690
     28 H10         0.1133   -0.1493   -1.6047 H         1 <0>         0.0495
     29 H11        -0.4217   -0.5876    0.0354 H         1 <0>         0.0504
     30 H12         1.3014   -0.2773   -0.2855 H         1 <0>         0.0653
     31 H13        -1.3869   -3.9246   -3.8093 H         1 <0>         0.0575
     32 H14         0.3908   -3.8643   -3.7411 H         1 <0>         0.0628
     33 H15        -2.5747   -6.1041   -3.5248 H         1 <0>         0.0574
     34 H16        -1.6434   -7.5966   -3.2539 H         1 <0>         0.0549
     35 H17        -1.8620   -4.6245   -0.1841 H         1 <0>         0.0833
     36 H18        -2.7024   -4.3685   -1.7321 H         1 <0>         0.0477
     37 H19         0.3826   -6.4031   -1.2836 H         1 <0>         0.0577
     38 H20        -0.5546   -6.7194    0.1962 H         1 <0>         0.0612
     39 H21        -0.4637   -7.9559   -1.0810 H         1 <0>         0.0410
     40 H22        -2.9589   -8.0405   -1.1767 H         1 <0>         0.0480
     41 H23        -3.0498   -6.8040    0.1004 H         1 <0>         0.0555
     42 H24        -3.8903   -6.5481   -1.4476 H         1 <0>         0.0491
     43 H25         0.5184   -5.5999   -5.5338 H         1 <0>         0.0509
     44 H26        -0.3278   -7.1526   -5.3311 H         1 <0>         0.0496
     45 H27        -1.2592   -5.6602   -5.6020 H         1 <0>         0.0509
@<TRIPOS>BOND
     1    1    2 1
     2    1   21 1
     3    1   22 1
     4    1   23 1
     5    2    3 1
     6    2   24 1
     7    2   25 1
     8    3    4 1
     9    3   26 1
    10    3   27 1
    11    4    5 1
    12    4    6 1
    13    4    9 1
    14    5   28 1
    15    5   29 1
    16    5   30 1
    17    6    7 2
    18    6    8 1
    19    9   10 1
    20   10   11 1
    21   10   17 1
    22   10   12 1
    23   12   13 1
    24   12   31 1
    25   12   32 1
    26   13   14 1
    27   13   15 1
    28   13   20 1
    29   15   16 1
    30   15   33 1
    31   15   34 1
    32   16   17 1
    33   16   18 1
    34   16   19 1
    35   17   35 1
    36   17   36 1
    37   18   37 1
    38   18   38 1
    39   18   39 1
    40   19   40 1
    41   19   41 1
    42   19   42 1
    43   20   43 1
    44   20   44 1
    45   20   45 1
@<TRIPOS>MOLECULE
ZINC49627669
   41    42     0     0     0
SMALL
USER_CHARGES

@<TRIPOS>ATOM
      1 C1         -0.0187    1.5258    0.0104 C.3       1 <0>        -0.1476
      2 C2          0.0021   -0.0041    0.0020 C.3       1 <0>        -0.0901
      3 H1         -1.0205   -0.3814    0.0098 H         1 <0>         0.0809
      4 C3          0.7182   -0.4975   -1.2568 C.3       1 <0>        -0.1119
      5 C4          0.7390   -2.0273   -1.2652 C.3       1 <0>        -0.1157
      6 C5          1.4790   -2.5342   -0.0257 C.3       1 <0>        -0.1400
      7 C6          0.7628   -2.0407    1.2331 C.3       1 <0>         0.0873
      8 H2          1.2900   -2.4018    2.1162 H         1 <0>         0.0572
      9 C7          0.7421   -0.5109    1.2415 C.3       1 <0>        -0.1081
     10 O1         -0.5778   -2.5354    1.2433 O.3       1 <0>        -0.3672
     11 C8         -0.7256   -3.8007    1.8907 C.3       1 <0>         0.1084
     12 C9         -2.1712   -4.2237    1.8427 C.ar      1 <0>        -0.1102
     13 C10        -3.0307   -3.8544    2.8629 C.ar      1 <0>        -0.0967
     14 C11        -4.3547   -4.2374    2.8264 C.ar      1 <0>        -0.1204
     15 C12        -4.8286   -5.0013    1.7545 C.ar      1 <0>        -0.0254
     16 C13        -3.9535   -5.3704    0.7274 C.ar      1 <0>        -0.1243
     17 C14        -2.6337   -4.9746    0.7759 C.ar      1 <0>        -0.0942
     18 C15        -6.2396   -5.4145    1.7080 C.2       1 <0>        -0.1220
     19 C16        -6.6937   -6.1524    0.6709 C.2       1 <0>        -0.1597
     20 C17        -8.0518   -6.5502    0.6260 C.2       1 <0>         0.4994
     21 O2         -8.8152   -6.2255    1.5273 O.co2     1 <0>        -0.6942
     22 O3         -8.4634   -7.2190   -0.3141 O.co2     1 <0>        -0.6982
     23 H3          1.0039    1.9031    0.0027 H         1 <0>         0.0504
     24 H4         -0.5459    1.8868   -0.8726 H         1 <0>         0.0535
     25 H5         -0.5289    1.8773    0.9072 H         1 <0>         0.0535
     26 H6          0.1910   -0.1364   -2.1398 H         1 <0>         0.0600
     27 H7          1.7408   -0.1202   -1.2645 H         1 <0>         0.0564
     28 H8         -0.2836   -2.4046   -1.2575 H         1 <0>         0.0719
     29 H9          1.2492   -2.3788   -2.1620 H         1 <0>         0.0568
     30 H10         1.4937   -3.6240   -0.0317 H         1 <0>         0.0616
     31 H11         2.5015   -2.1569   -0.0334 H         1 <0>         0.0671
     32 H12         1.7647   -0.1336    1.2338 H         1 <0>         0.0708
     33 H13         0.2319   -0.1594    2.1383 H         1 <0>         0.0671
     34 H14        -0.1125   -4.5437    1.3805 H         1 <0>         0.0525
     35 H15        -0.4058   -3.7170    2.9293 H         1 <0>         0.0526
     36 H16        -2.6632   -3.2650    3.6899 H         1 <0>         0.1182
     37 H17        -5.0240   -3.9488    3.6234 H         1 <0>         0.1249
     38 H18        -4.3118   -5.9603   -0.1033 H         1 <0>         0.1275
     39 H19        -1.9579   -5.2548   -0.0186 H         1 <0>         0.1182
     40 H20        -6.9126   -5.1283    2.5026 H         1 <0>         0.1288
     41 H21        -6.0206   -6.4386   -0.1238 H         1 <0>         0.1006
@<TRIPOS>BOND
     1    1    2 1
     2    1   23 1
     3    1   24 1
     4    1   25 1
     5    2    3 1
     6    2    9 1
     7    2    4 1
     8    4    5 1
     9    4   26 1
    10    4   27 1
    11    5    6 1
    12    5   28 1
    13    5   29 1
    14    6    7 1
    15    6   30 1
    16    6   31 1
    17    7    8 1
    18    7    9 1
    19    7   10 1
    20    9   32 1
    21    9   33 1
    22   10   11 1
    23   11   12 1
    24   11   34 1
    25   11   35 1
    26   12   17 ar
    27   12   13 ar
    28   13   14 ar
    29   13   36 1
    30   14   15 ar
    31   14   37 1
    32   15   16 ar
    33   15   18 1
    34   16   17 ar
    35   16   38 1
    36   17   39 1
    37   18   19 2
    38   18   40 1
    39   19   20 1
    40   19   41 1
    41   20   21 2
    42   20   22 1
@<TRIPOS>MOLECULE
ZINC62759043
   36    36     0     0     0
SMALL
USER_CHARGES

@<TRIPOS>ATOM
      1 C1          0.5226    1.4334    1.7492 C.3       1 <0>        -0.1509
      2 C2          0.4725   -0.0927    1.6521 C.3       1 <0>        -0.1270
      3 C3         -0.7567   -0.5122    0.8436 C.3       1 <0>        -0.1124
      4 C4         -0.8068   -2.0383    0.7465 C.3       1 <0>        -0.0830
      5 H1          0.1319   -2.4071    0.3332 H         1 <0>         0.0757
      6 C5         -1.0179   -2.6314    2.1410 C.3       1 <0>        -0.1131
      7 C6         -1.0680   -4.1575    2.0440 C.3       1 <0>        -0.0887
      8 C7         -2.2247   -4.5729    1.1327 C.3       1 <0>        -0.1514
      9 H2         -3.1634   -4.2041    1.5461 H         1 <0>         0.0741
     10 C8         -2.0136   -3.9799   -0.2618 C.3       1 <0>         0.1188
     11 H3         -2.8376   -4.2758   -0.9110 H         1 <0>         0.0681
     12 C9         -1.9635   -2.4538   -0.1648 C.3       1 <0>        -0.1367
     13 O1         -0.7829   -4.4633   -0.8037 O.3       1 <0>        -0.3492
     14 C10        -0.7587   -4.5196   -2.2314 C.3       1 <0>         0.0204
     15 C11         0.5902   -5.0710   -2.6974 C.3       1 <0>         0.4598
     16 F1          0.7734   -6.3566   -2.1769 F         1 <0>        -0.1693
     17 F2          0.6139   -5.1260   -4.0951 F         1 <0>        -0.1852
     18 F3          1.6169   -4.2345   -2.2462 F         1 <0>        -0.1814
     19 C12        -2.2740   -6.0760    1.0372 C.2       1 <0>         0.5034
     20 O2         -1.7963   -6.7594    1.9267 O.co2     1 <0>        -0.6957
     21 O3         -2.7916   -6.6088    0.0703 O.co2     1 <0>        -0.7020
     22 H4          1.3984    1.7323    2.3252 H         1 <0>         0.0498
     23 H5          0.5838    1.8593    0.7477 H         1 <0>         0.0502
     24 H6         -0.3786    1.7958    2.2437 H         1 <0>         0.0510
     25 H7          1.3738   -0.4551    1.1576 H         1 <0>         0.0600
     26 H8          0.4114   -0.5186    2.6536 H         1 <0>         0.0647
     27 H9         -1.6579   -0.1498    1.3381 H         1 <0>         0.0575
     28 H10        -0.6956   -0.0863   -0.1579 H         1 <0>         0.0555
     29 H11        -0.1939   -2.3354    2.7903 H         1 <0>         0.0562
     30 H12        -1.9566   -2.2626    2.5544 H         1 <0>         0.0524
     31 H13        -0.1293   -4.5263    1.6307 H         1 <0>         0.0619
     32 H14        -1.2184   -4.5800    3.0375 H         1 <0>         0.0626
     33 H15        -2.9022   -2.0850    0.2486 H         1 <0>         0.0695
     34 H16        -1.8131   -2.0313   -1.1582 H         1 <0>         0.0552
     35 H17        -1.5586   -5.1712   -2.5829 H         1 <0>         0.0960
     36 H18        -0.9015   -3.5179   -2.6369 H         1 <0>         0.0829
@<TRIPOS>BOND
     1    1    2 1
     2    1   22 1
     3    1   23 1
     4    1   24 1
     5    2    3 1
     6    2   25 1
     7    2   26 1
     8    3    4 1
     9    3   27 1
    10    3   28 1
    11    4    5 1
    12    4   12 1
    13    4    6 1
    14    6    7 1
    15    6   29 1
    16    6   30 1
    17    7    8 1
    18    7   31 1
    19    7   32 1
    20    8    9 1
    21    8   10 1
    22    8   19 1
    23   10   11 1
    24   10   12 1
    25   10   13 1
    26   12   33 1
    27   12   34 1
    28   13   14 1
    29   14   15 1
    30   14   35 1
    31   14   36 1
    32   15   16 1
    33   15   17 1
    34   15   18 1
    35   19   20 2
    36   19   21 1
@<TRIPOS>MOLECULE
ZINC19843034
   23    24     0     0     0
SMALL
USER_CHARGES
1-(1,3-benzothiazol-2-yl)-4,4,4-trifluoro-butane-1,3-dione
@<TRIPOS>ATOM
      1 C1          1.1784    1.7933    0.0004 C.ar      1 <0>        -0.1181
      2 C2         -0.0126    1.0758    0.0080 C.ar      1 <0>        -0.1084
      3 C3         -1.2140    1.7558    0.0173 C.ar      1 <0>        -0.0650
      4 C4         -1.2121    3.1310    0.0310 C.ar      1 <0>        -0.1598
      5 C5         -0.0142    3.8923    0.0236 C.ar      1 <0>         0.0842
      6 C6          1.1957    3.1504    0.0076 C.ar      1 <0>        -0.0646
      7 N1         -0.1694    5.2180    0.0332 N.2       1 <0>        -0.4945
      8 C7         -1.3515    5.7977    0.0484 C.2       1 <0>         0.1710
      9 S1         -2.4602    4.3951    0.0510 S.3       1 <0>        -0.0015
     10 C8         -1.6767    7.2321    0.0599 C.2       1 <0>         0.4191
     11 O1         -0.7867    8.0557    0.0556 O.3       1 <0>        -0.4707
     12 C9         -3.1161    7.6783    0.0770 C.2       1 <0>        -0.5547
     13 C10        -3.1752    9.1841    0.0862 C.2       1 <0>         0.3324
     14 O2         -2.1539    9.8285    0.0795 O.2       1 <0>        -0.4654
     15 C11        -4.5087    9.8858    0.1037 C.3       1 <0>         0.4119
     16 F1         -4.6259   10.6931   -1.0329 F         1 <0>        -0.1903
     17 F2         -5.5356    8.9356    0.1087 F         1 <0>        -0.1840
     18 F3         -4.6027   10.6800    1.2515 F         1 <0>        -0.1902
     19 H1          2.1153    1.2561   -0.0118 H         1 <0>         0.1283
     20 H2          0.0021   -0.0041    0.0020 H         1 <0>         0.1330
     21 H3         -2.1473    1.2124    0.0184 H         1 <0>         0.1299
     22 H4          2.1414    3.6720    0.0014 H         1 <0>         0.1296
     23 H5         -3.9235    6.9312    0.0809 H         1 <0>         0.1281
@<TRIPOS>BOND
     1    1    6 ar
     2    1    2 ar
     3    1   19 1
     4    2    3 ar
     5    2   20 1
     6    3    4 ar
     7    3   21 1
     8    4    9 1
     9    4    5 ar
    10    5    6 ar
    11    5    7 1
    12    6   22 1
    13    7    8 2
    14    8    9 1
    15    8   10 1
    16   10   11 1
    17   10   12 2
    18   12   13 1
    19   12   23 1
    20   13   14 2
    21   13   15 1
    22   15   16 1
    23   15   17 1
    24   15   18 1
@<TRIPOS>MOLECULE
ZINC41922009
   30    30     0     0     0
SMALL
USER_CHARGES

@<TRIPOS>ATOM
      1 C1          0.3811    1.7658    0.5320 C.3       1 <0>        -0.1047
      2 C2          1.8765    2.0965    0.7147 C.3       1 <0>        -0.1258
      3 C3          2.3215    1.5731    2.0535 C.3       1 <0>        -0.1124
      4 C4          2.9384    0.1644    1.9601 C.3       1 <0>        -0.1352
      5 C5          2.1606   -0.7667    1.0105 C.3       1 <0>         0.0570
      6 C6          0.6699   -0.6277    1.1610 C.3       1 <0>        -0.0804
      7 C7          0.1643    0.3881    0.1161 C.3       1 <0>        -0.1190
      8 C8          2.5490   -2.1936    1.3006 C.2       1 <0>         0.4775
      9 O1          2.4971   -2.6196    2.4418 O.co2     1 <0>        -0.6886
     10 O2          2.9150   -2.9221    0.3940 O.co2     1 <0>        -0.6794
     11 O3          2.5201   -0.4573   -0.3375 O.3       1 <0>        -0.3465
     12 C9          3.9263   -0.4995   -0.5883 C.3       1 <0>         0.0116
     13 C10         4.1837   -0.3017   -2.0835 C.3       1 <0>         0.4606
     14 F1          3.6756    0.9386   -2.4842 F         1 <0>        -0.1861
     15 F2          5.5604   -0.3430   -2.3291 F         1 <0>        -0.1863
     16 F3          3.5507   -1.3200   -2.8043 F         1 <0>        -0.1726
     17 H1         -0.1358    1.9349    1.4766 H         1 <0>         0.0501
     18 H2         -0.0382    2.4322   -0.2219 H         1 <0>         0.0497
     19 H3          2.4561    1.6200   -0.0758 H         1 <0>         0.0824
     20 H4          2.0199    3.1764    0.6777 H         1 <0>         0.0504
     21 H5          3.0620    2.2555    2.4706 H         1 <0>         0.0504
     22 H6          1.4613    1.5377    2.7220 H         1 <0>         0.0575
     23 H7          3.9645    0.2530    1.6031 H         1 <0>         0.0548
     24 H8          2.9520   -0.2801    2.9553 H         1 <0>         0.0798
     25 H9          0.1933   -1.5935    0.9931 H         1 <0>         0.0636
     26 H10         0.4348   -0.2696    2.1633 H         1 <0>         0.0697
     27 H11        -0.9026    0.2307   -0.0418 H         1 <0>         0.0487
     28 H12         0.6875    0.2168   -0.8247 H         1 <0>         0.0805
     29 H13         4.4195    0.2939   -0.0267 H         1 <0>         0.0786
     30 H14         4.3222   -1.4658   -0.2761 H         1 <0>         0.1142
@<TRIPOS>BOND
     1    1    7 1
     2    1    2 1
     3    1   17 1
     4    1   18 1
     5    2    3 1
     6    2   19 1
     7    2   20 1
     8    3    4 1
     9    3   21 1
    10    3   22 1
    11    4    5 1
    12    4   23 1
    13    4   24 1
    14    5    6 1
    15    5    8 1
    16    5   11 1
    17    6    7 1
    18    6   25 1
    19    6   26 1
    20    7   27 1
    21    7   28 1
    22    8    9 2
    23    8   10 1
    24   11   12 1
    25   12   13 1
    26   12   29 1
    27   12   30 1
    28   13   14 1
    29   13   15 1
    30   13   16 1
@<TRIPOS>MOLECULE
ZINC02574531
   38    39     0     0     0
SMALL
USER_CHARGES

@<TRIPOS>ATOM
      1 C1          2.4431   -0.8396    1.3428 C.3       1 <0>        -0.1254
      2 C2          1.1378   -1.1582    0.6602 C.ar      1 <0>        -0.0510
      3 C3          1.1350   -1.7842   -0.5684 C.ar      1 <0>        -0.1284
      4 C4         -0.0627   -2.0775   -1.1969 C.ar      1 <0>        -0.1024
      5 C5         -1.2659   -1.7454   -0.5990 C.ar      1 <0>        -0.1282
      6 C6         -1.2798   -1.1187    0.6292 C.ar      1 <0>        -0.0476
      7 C7         -0.0739   -0.8249    1.2738 C.ar      1 <0>        -0.1484
      8 C8         -0.0799   -0.1626    2.5879 C.2       1 <0>         0.4157
      9 O1         -0.1831    1.0435    2.6585 O.2       1 <0>        -0.4449
     10 C9          0.0422   -0.9833    3.8459 C.3       1 <0>        -0.1266
     11 C10        -1.3484   -1.4338    4.2979 C.3       1 <0>        -0.1042
     12 C11        -1.2244   -2.2671    5.5751 C.3       1 <0>        -0.0885
     13 C12        -0.5797   -1.4215    6.6752 C.3       1 <0>        -0.1556
     14 C13         0.8109   -0.9709    6.2232 C.3       1 <0>        -0.0900
     15 C14         0.6869   -0.1377    4.9460 C.3       1 <0>        -0.1055
     16 C15        -0.4576   -2.2422    7.9332 C.2       1 <0>         0.4945
     17 O2          0.4520   -2.0264    8.7159 O.co2     1 <0>        -0.7006
     18 O3         -1.2683   -3.1219    8.1682 O.co2     1 <0>        -0.7012
     19 C16        -2.5910   -0.7574    1.2782 C.3       1 <0>        -0.1291
     20 H1          2.6904   -1.6367    2.0439 H         1 <0>         0.0801
     21 H2          3.2324   -0.7548    0.5959 H         1 <0>         0.0723
     22 H3          2.3504    0.1030    1.8822 H         1 <0>         0.0675
     23 H4          2.0699   -2.0459   -1.0417 H         1 <0>         0.1258
     24 H5         -0.0583   -2.5679   -2.1592 H         1 <0>         0.1240
     25 H6         -2.1963   -1.9773   -1.0959 H         1 <0>         0.1259
     26 H7          0.6618   -1.8584    3.6501 H         1 <0>         0.0933
     27 H8         -1.9680   -0.5587    4.4937 H         1 <0>         0.0626
     28 H9         -1.8077   -2.0363    3.5142 H         1 <0>         0.0608
     29 H10        -2.2151   -2.5880    5.8971 H         1 <0>         0.0700
     30 H11        -0.6048   -3.1422    5.3793 H         1 <0>         0.0554
     31 H12        -1.1993   -0.5464    6.8710 H         1 <0>         0.0617
     32 H13         1.2702   -0.3685    7.0069 H         1 <0>         0.0688
     33 H14         1.4305   -1.8460    6.0274 H         1 <0>         0.0535
     34 H15         1.6776    0.1833    4.6240 H         1 <0>         0.0552
     35 H16         0.0673    0.7374    5.1418 H         1 <0>         0.0673
     36 H17        -2.8889   -1.5521    1.9622 H         1 <0>         0.0817
     37 H18        -2.4778    0.1748    1.8315 H         1 <0>         0.0700
     38 H19        -3.3546   -0.6338    0.5103 H         1 <0>         0.0717
@<TRIPOS>BOND
     1    1    2 1
     2    1   20 1
     3    1   21 1
     4    1   22 1
     5    2    7 ar
     6    2    3 ar
     7    3    4 ar
     8    3   23 1
     9    4    5 ar
    10    4   24 1
    11    5    6 ar
    12    5   25 1
    13    6    7 ar
    14    6   19 1
    15    7    8 1
    16    8    9 2
    17    8   10 1
    18   10   15 1
    19   10   11 1
    20   10   26 1
    21   11   12 1
    22   11   27 1
    23   11   28 1
    24   12   13 1
    25   12   29 1
    26   12   30 1
    27   13   14 1
    28   13   16 1
    29   13   31 1
    30   14   15 1
    31   14   32 1
    32   14   33 1
    33   15   34 1
    34   15   35 1
    35   16   17 2
    36   16   18 1
    37   19   36 1
    38   19   37 1
    39   19   38 1
@<TRIPOS>MOLECULE
ZINC54186727
   31    31     0     0     0
SMALL
USER_CHARGES

@<TRIPOS>ATOM
      1 C1         -0.0187    1.5258    0.0104 C.3       1 <0>        -0.1224
      2 C2          0.0021   -0.0041    0.0020 C.3       1 <0>        -0.1764
      3 H1          0.5293   -0.3651    0.8851 H         1 <0>         0.0640
      4 C3         -1.4333   -0.5336    0.0129 C.3       1 <0>         0.1387
      5 N1         -2.0815   -0.1618    1.2729 N.pl3     1 <0>        -0.6140
      6 C4         -2.8087    1.1058    1.3764 C.3       1 <0>         0.0833
      7 C5         -2.0062   -1.0157    2.3757 C.ar      1 <0>         0.2547
      8 C6         -1.3123   -2.2154    2.2810 C.ar      1 <0>        -0.1958
      9 C7         -1.2394   -3.0572    3.3734 C.ar      1 <0>        -0.0198
     10 C8         -1.8567   -2.7073    4.5603 C.ar      1 <0>        -0.2608
     11 C9         -2.5483   -1.5138    4.6580 C.ar      1 <0>        -0.0234
     12 C10        -2.6203   -0.6647    3.5712 C.ar      1 <0>        -0.2107
     13 C11        -1.7758   -3.6289    5.7499 C.3       1 <0>         0.5145
     14 F1         -0.6480   -3.3077    6.5128 F         1 <0>        -0.1832
     15 F2         -2.9258   -3.4816    6.5329 F         1 <0>        -0.1849
     16 F3         -1.6787   -4.9528    5.3084 F         1 <0>        -0.1824
     17 C12         0.7074   -0.4901   -1.2379 C.2       1 <0>         0.4981
     18 O1          1.4615   -1.4461   -1.1751 O.co2     1 <0>        -0.6976
     19 O2          0.5241    0.0728   -2.3037 O.co2     1 <0>        -0.6945
     20 H2          1.0039    1.9031    0.0027 H         1 <0>         0.0436
     21 H3         -0.5459    1.8868   -0.8726 H         1 <0>         0.0565
     22 H4         -0.5289    1.8773    0.9072 H         1 <0>         0.0380
     23 H5         -1.9862   -0.1019   -0.8214 H         1 <0>         0.0783
     24 H6         -1.4207   -1.6194   -0.0826 H         1 <0>         0.0750
     25 H7         -3.8508    0.9507    1.0973 H         1 <0>         0.0487
     26 H8         -2.7577    1.4712    2.4021 H         1 <0>         0.0662
     27 H9         -2.3584    1.8387    0.7068 H         1 <0>         0.0779
     28 H10        -0.8306   -2.4896    1.3541 H         1 <0>         0.1404
     29 H11        -0.7001   -3.9900    3.3004 H         1 <0>         0.1310
     30 H12        -3.0292   -1.2435    5.5865 H         1 <0>         0.1276
     31 H13        -3.1568    0.2694    3.6495 H         1 <0>         0.1297
@<TRIPOS>BOND
     1    1    2 1
     2    1   20 1
     3    1   21 1
     4    1   22 1
     5    2    3 1
     6    2    4 1
     7    2   17 1
     8    4    5 1
     9    4   23 1
    10    4   24 1
    11    5    6 1
    12    5    7 1
    13    6   25 1
    14    6   26 1
    15    6   27 1
    16    7   12 ar
    17    7    8 ar
    18    8    9 ar
    19    8   28 1
    20    9   10 ar
    21    9   29 1
    22   10   11 ar
    23   10   13 1
    24   11   12 ar
    25   11   30 1
    26   12   31 1
    27   13   14 1
    28   13   15 1
    29   13   16 1
    30   17   18 2
    31   17   19 1
@<TRIPOS>MOLECULE
ZINC62761755
   40    41     0     0     0
SMALL
USER_CHARGES

@<TRIPOS>ATOM
      1 C1         -0.0187    1.5258    0.0104 C.3       1 <0>        -0.1443
      2 C2          0.0021   -0.0041    0.0020 C.3       1 <0>        -0.0881
      3 H1          0.5123   -0.3556   -0.8948 H         1 <0>         0.0797
      4 C3         -1.4333   -0.5336    0.0129 C.3       1 <0>        -0.1106
      5 C4         -1.4126   -2.0635    0.0045 C.3       1 <0>        -0.1035
      6 C5         -0.6726   -2.5703    1.2440 C.3       1 <0>        -0.1327
      7 C6          0.7628   -2.0407    1.2331 C.3       1 <0>         0.0932
      8 H2          1.2900   -2.4018    2.1162 H         1 <0>         0.0438
      9 C7          0.7421   -0.5109    1.2415 C.3       1 <0>        -0.1040
     10 O1          1.4317   -2.5016    0.0574 O.3       1 <0>        -0.3508
     11 C8          2.1012   -3.7532    0.2225 C.3       1 <0>         0.1184
     12 H3          1.5749   -4.3515    0.9661 H         1 <0>         0.0577
     13 C9          3.5368   -3.5058    0.6901 C.3       1 <0>        -0.1415
     14 C10         4.2757   -2.6660   -0.3537 C.3       1 <0>        -0.1077
     15 C11         4.2958   -3.4135   -1.6885 C.3       1 <0>        -0.1187
     16 C12         2.8601   -3.6609   -2.1562 C.3       1 <0>        -0.0858
     17 C13         2.1213   -4.5008   -1.1123 C.3       1 <0>        -0.1529
     18 H4          2.6320   -5.4554   -0.9864 H         1 <0>         0.0641
     19 C14         0.7073   -4.7444   -1.5729 C.2       1 <0>         0.5055
     20 O2          0.4560   -4.8040   -2.7645 O.co2     1 <0>        -0.7047
     21 O3         -0.1855   -4.8820   -0.7540 O.co2     1 <0>        -0.6901
     22 H5          1.0039    1.9031    0.0027 H         1 <0>         0.0489
     23 H6         -0.5459    1.8868   -0.8726 H         1 <0>         0.0502
     24 H7         -0.5289    1.8773    0.9072 H         1 <0>         0.0475
     25 H8         -1.9435   -0.1821    0.9097 H         1 <0>         0.0483
     26 H9         -1.9605   -0.1726   -0.8702 H         1 <0>         0.0524
     27 H10        -2.4352   -2.4408    0.0122 H         1 <0>         0.0473
     28 H11        -0.9024   -2.4150   -0.8923 H         1 <0>         0.0840
     29 H12        -1.1828   -2.2188    2.1408 H         1 <0>         0.0453
     30 H13        -0.6578   -3.6602    1.2380 H         1 <0>         0.0837
     31 H14         1.7647   -0.1336    1.2338 H         1 <0>         0.0587
     32 H15         0.2319   -0.1594    2.1383 H         1 <0>         0.0632
     33 H16         3.5225   -2.9732    1.6411 H         1 <0>         0.0514
     34 H17         4.0475   -4.4605    0.8160 H         1 <0>         0.0607
     35 H18         3.7650   -1.7113   -0.4796 H         1 <0>         0.0657
     36 H19         5.2985   -2.4897   -0.0206 H         1 <0>         0.0457
     37 H20         4.8221   -2.8152   -2.4322 H         1 <0>         0.0504
     38 H21         4.8065   -4.3682   -1.5626 H         1 <0>         0.0503
     39 H22         2.3494   -2.7062   -2.2821 H         1 <0>         0.0605
     40 H23         2.8744   -4.1935   -3.1071 H         1 <0>         0.0586
@<TRIPOS>BOND
     1    1    2 1
     2    1   22 1
     3    1   23 1
     4    1   24 1
     5    2    3 1
     6    2    9 1
     7    2    4 1
     8    4    5 1
     9    4   25 1
    10    4   26 1
    11    5    6 1
    12    5   27 1
    13    5   28 1
    14    6    7 1
    15    6   29 1
    16    6   30 1
    17    7    8 1
    18    7    9 1
    19    7   10 1
    20    9   31 1
    21    9   32 1
    22   10   11 1
    23   11   12 1
    24   11   17 1
    25   11   13 1
    26   13   14 1
    27   13   33 1
    28   13   34 1
    29   14   15 1
    30   14   35 1
    31   14   36 1
    32   15   16 1
    33   15   37 1
    34   15   38 1
    35   16   17 1
    36   16   39 1
    37   16   40 1
    38   17   18 1
    39   17   19 1
    40   19   20 2
    41   19   21 1
@<TRIPOS>MOLECULE
ZINC21318746
   45    47     0     0     0
SMALL
USER_CHARGES
N-[(3,5-dichloro-2-hydroxy-phenyl)methyleneamino]-3,3-bis(phenylsulfanyl)prop-2-enamide
@<TRIPOS>ATOM
      1 C1          7.6277   11.3106   -3.4304 C.ar      1 <0>        -0.1205
      2 C2          7.4687   12.2872   -2.4641 C.ar      1 <0>        -0.1067
      3 C3          6.7485   12.0155   -1.3176 C.ar      1 <0>        -0.0985
      4 C4          6.1835   10.7594   -1.1354 C.ar      1 <0>        -0.0997
      5 C5          6.3497    9.7791   -2.1058 C.ar      1 <0>        -0.1095
      6 C6          7.0666   10.0592   -3.2523 C.ar      1 <0>        -0.1003
      7 S1          5.2643   10.4082    0.3262 S.3       1 <0>         0.0130
      8 C7          4.9839    8.6829    0.1042 C.2       1 <0>        -0.1692
      9 C8          3.7126    8.2192   -0.1512 C.2       1 <0>        -0.0592
     10 C9          3.4896    6.8469   -0.3278 C.2       1 <0>         0.5272
     11 O1          4.4215    6.0633   -0.2553 O.2       1 <0>        -0.4458
     12 N1          2.2454    6.3931   -0.5777 N.am      1 <0>        -0.5922
     13 N2          2.0224    5.0213   -0.7542 N.2       1 <0>        -0.1876
     14 C10         0.8242    4.5842   -0.9949 C.2       1 <0>         0.1299
     15 C11         0.5896    3.1410   -1.1807 C.ar      1 <0>        -0.2080
     16 C12        -0.6985    2.6666   -1.4399 C.ar      1 <0>        -0.0188
     17 C13        -0.9117    1.3142   -1.6133 C.ar      1 <0>        -0.1665
     18 C14         0.1470    0.4244   -1.5309 C.ar      1 <0>        -0.0406
     19 C15         1.4266    0.8823   -1.2747 C.ar      1 <0>        -0.1567
     20 C16         1.6573    2.2377   -1.0982 C.ar      1 <0>         0.2995
     21 O2          2.9140    2.6884   -0.8460 O.3       1 <0>        -0.6178
     22 Cl1         2.7456   -0.2418   -1.1737 Cl        1 <0>        -0.0965
     23 Cl2        -2.5128    0.7257   -1.9354 Cl        1 <0>        -0.1148
     24 S2          6.3301    7.5509    0.2089 S.3       1 <0>         0.1029
     25 C17         6.7208    7.6977    1.9208 C.ar      1 <0>        -0.1029
     26 C18         5.9086    8.4524    2.7581 C.ar      1 <0>        -0.1174
     27 C19         6.2151    8.5614    4.1002 C.ar      1 <0>        -0.1012
     28 C20         7.3349    7.9290    4.6089 C.ar      1 <0>        -0.1304
     29 C21         8.1485    7.1813    3.7772 C.ar      1 <0>        -0.1017
     30 C22         7.8450    7.0638    2.4352 C.ar      1 <0>        -0.1019
     31 H1          8.1912   11.5259   -4.3263 H         1 <0>         0.1245
     32 H2          7.9079   13.2635   -2.6065 H         1 <0>         0.1267
     33 H3          6.6250   12.7785   -0.5633 H         1 <0>         0.1261
     34 H4          5.9152    8.8003   -1.9654 H         1 <0>         0.1232
     35 H5          7.1927    9.2989   -4.0088 H         1 <0>         0.1272
     36 H6          2.8722    8.9259   -0.2166 H         1 <0>         0.1542
     37 H7          1.4050    7.0998   -0.6431 H         1 <0>         0.3752
     38 H8         -0.0163    5.2909   -1.0602 H         1 <0>         0.0981
     39 H9         -1.5256    3.3577   -1.5089 H         1 <0>         0.1119
     40 H10        -0.0278   -0.6326   -1.6678 H         1 <0>         0.1138
     41 H11         5.0362    8.9498    2.3607 H         1 <0>         0.1163
     42 H12         5.5819    9.1445    4.7524 H         1 <0>         0.1222
     43 H13         7.5744    8.0190    5.6582 H         1 <0>         0.1216
     44 H14         9.0220    6.6885    4.1778 H         1 <0>         0.1252
     45 H15         8.4809    6.4801    1.7862 H         1 <0>         0.1257
@<TRIPOS>BOND
     1    1    6 ar
     2    1    2 ar
     3    1   31 1
     4    2    3 ar
     5    2   32 1
     6    3    4 ar
     7    3   33 1
     8    4    5 ar
     9    4    7 1
    10    5    6 ar
    11    5   34 1
    12    6   35 1
    13    7    8 1
    14    8    9 2
    15    8   24 1
    16    9   10 1
    17    9   36 1
    18   10   11 2
    19   10   12 am
    20   12   13 1
    21   12   37 1
    22   13   14 2
    23   14   15 1
    24   14   38 1
    25   15   20 ar
    26   15   16 ar
    27   16   17 ar
    28   16   39 1
    29   17   18 ar
    30   17   23 1
    31   18   19 ar
    32   18   40 1
    33   19   20 ar
    34   19   22 1
    35   20   21 1
    36   24   25 1
    37   25   30 ar
    38   25   26 ar
    39   26   27 ar
    40   26   41 1
    41   27   28 ar
    42   27   42 1
    43   28   29 ar
    44   28   43 1
    45   29   30 ar
    46   29   44 1
    47   30   45 1
@<TRIPOS>MOLECULE
ZINC35969642
   62    65     0     0     0
SMALL
USER_CHARGES

@<TRIPOS>ATOM
      1 C1          2.1600   -0.7897    2.2503 C.3       1 <0>        -0.1505
      2 C2          1.1801   -0.9324    1.0840 C.3       1 <0>         0.0571
      3 O1          1.8847   -1.3716   -0.0791 O.3       1 <0>        -0.3569
      4 C3          1.1795   -1.4541   -1.2289 C.2       1 <0>         0.5615
      5 O2          0.0231   -1.0708   -1.2634 O.2       1 <0>        -0.5004
      6 C4          1.7773   -1.9800   -2.3806 C.2       1 <0>        -0.3759
      7 C5          1.9167   -3.3438   -2.5534 C.2       1 <0>         0.2506
      8 N1          2.4837   -3.8266   -3.6469 N.2       1 <0>        -0.5942
      9 C6          2.9513   -3.0945   -4.6369 C.2       1 <0>         0.3244
     10 N2          2.9100   -1.7284   -4.6609 N.pl3     1 <0>        -0.5204
     11 C7          2.2864   -1.0744   -3.4798 C.3       1 <0>         0.2725
     12 H1          3.0245   -0.4008   -3.0446 H         1 <0>         0.0721
     13 C8          1.1304   -0.2374   -3.9638 C.ar      1 <0>        -0.0743
     14 C9          0.3462   -0.6820   -5.0121 C.ar      1 <0>        -0.0741
     15 C10        -0.7139    0.0856   -5.4560 C.ar      1 <0>        -0.1209
     16 C11        -0.9905    1.2979   -4.8515 C.ar      1 <0>        -0.0881
     17 C12        -0.2071    1.7419   -3.8030 C.ar      1 <0>        -0.1183
     18 C13         0.8508    0.9721   -3.3561 C.ar      1 <0>        -0.0615
     19 C14         1.7017    1.4537   -2.2094 C.3       1 <0>        -0.1148
     20 C15        -2.1458    2.1353   -5.3362 C.3       1 <0>        -0.1072
     21 C16         3.4420   -1.1046   -5.7718 C.2       1 <0>         0.2323
     22 C17         3.9593   -1.8885   -6.7434 C.2       1 <0>        -0.3042
     23 S1          3.6921   -3.5209   -6.0814 S.3       1 <0>         0.1225
     24 C18         3.4453    0.3603   -5.8935 C.2       1 <0>        -0.4511
     25 C19         3.8370    0.9396   -7.0447 C.2       1 <0>         0.5035
     26 O3          4.1018    0.1752   -8.1321 O.3       1 <0>        -0.7016
     27 N3          3.9691    2.3160   -7.1171 N.pl3     1 <0>        -0.6422
     28 C20         4.3505    3.0949   -5.9311 C.3       1 <0>         0.1374
     29 C21         5.5680    3.9574   -6.2782 C.3       1 <0>        -0.1358
     30 C22         5.2522    4.8055   -7.5123 C.3       1 <0>        -0.1134
     31 C23         4.9550    3.8887   -8.7011 C.3       1 <0>        -0.1342
     32 C24         3.7365    3.0248   -8.3829 C.3       1 <0>         0.1352
     33 C25         1.4199   -4.2877   -1.4887 C.3       1 <0>        -0.1046
     34 H2          2.5623   -1.7691    2.5089 H         1 <0>         0.0640
     35 H3          2.9755   -0.1269    1.9607 H         1 <0>         0.0655
     36 H4          1.6404   -0.3712    3.1123 H         1 <0>         0.0737
     37 H5          0.4129   -1.6627    1.3414 H         1 <0>         0.0611
     38 H6          0.7118    0.0311    0.8829 H         1 <0>         0.0637
     39 H7          0.5623   -1.6290   -5.4843 H         1 <0>         0.1049
     40 H8         -1.3261   -0.2614   -6.2753 H         1 <0>         0.1135
     41 H9         -0.4230    2.6891   -3.3310 H         1 <0>         0.1133
     42 H10         2.4811    2.1150   -2.5881 H         1 <0>         0.0697
     43 H11         1.0792    1.9961   -1.4978 H         1 <0>         0.0633
     44 H12         2.1603    0.5986   -1.7130 H         1 <0>         0.0592
     45 H13        -3.0473    1.8631   -4.7873 H         1 <0>         0.0640
     46 H14        -1.9246    3.1898   -5.1714 H         1 <0>         0.0610
     47 H15        -2.3013    1.9588   -6.4005 H         1 <0>         0.0621
     48 H16         4.4158   -1.6003   -7.6788 H         1 <0>         0.2306
     49 H17         3.1335    0.9721   -5.0599 H         1 <0>         0.0866
     50 H18         3.5212    3.7364   -5.6331 H         1 <0>         0.0412
     51 H19         4.6030    2.4179   -5.1150 H         1 <0>         0.0748
     52 H20         5.8024    4.6108   -5.4379 H         1 <0>         0.0612
     53 H21         6.4221    3.3134   -6.4882 H         1 <0>         0.0627
     54 H22         4.3829    5.4312   -7.3101 H         1 <0>         0.0565
     55 H23         6.1082    5.4383   -7.7468 H         1 <0>         0.0537
     56 H24         4.7531    4.4933   -9.5853 H         1 <0>         0.0594
     57 H25         5.8148    3.2454   -8.8883 H         1 <0>         0.0634
     58 H26         3.5840    2.3015   -9.1840 H         1 <0>         0.0804
     59 H27         2.8560    3.6605   -8.2893 H         1 <0>         0.0380
     60 H28         0.4070   -4.6088   -1.7318 H         1 <0>         0.0782
     61 H29         2.0749   -5.1575   -1.4399 H         1 <0>         0.0815
     62 H30         1.4184   -3.7794   -0.5245 H         1 <0>         0.0686
@<TRIPOS>BOND
     1    1    2 1
     2    1   34 1
     3    1   35 1
     4    1   36 1
     5    2    3 1
     6    2   37 1
     7    2   38 1
     8    3    4 1
     9    4    5 2
    10    4    6 1
    11    6   11 1
    12    6    7 2
    13    7    8 1
    14    7   33 1
    15    8    9 2
    16    9   23 1
    17    9   10 1
    18   10   11 1
    19   10   21 1
    20   11   12 1
    21   11   13 1
    22   13   18 ar
    23   13   14 ar
    24   14   15 ar
    25   14   39 1
    26   15   16 ar
    27   15   40 1
    28   16   17 ar
    29   16   20 1
    30   17   18 ar
    31   17   41 1
    32   18   19 1
    33   19   42 1
    34   19   43 1
    35   19   44 1
    36   20   45 1
    37   20   46 1
    38   20   47 1
    39   21   22 2
    40   21   24 1
    41   22   23 1
    42   22   48 1
    43   24   25 2
    44   24   49 1
    45   25   26 1
    46   25   27 1
    47   27   32 1
    48   27   28 1
    49   28   29 1
    50   28   50 1
    51   28   51 1
    52   29   30 1
    53   29   52 1
    54   29   53 1
    55   30   31 1
    56   30   54 1
    57   30   55 1
    58   31   32 1
    59   31   56 1
    60   31   57 1
    61   32   58 1
    62   32   59 1
    63   33   60 1
    64   33   61 1
    65   33   62 1
@<TRIPOS>MOLECULE
ZINC40030834
   58    61     0     0     0
SMALL
USER_CHARGES

@<TRIPOS>ATOM
      1 C1         -0.1297    1.4418   -0.2430 C.2       1 <0>        -0.1895
      2 C2         -0.0977    0.1345   -0.1651 C.2       1 <0>        -0.1594
      3 C3         -1.3837   -0.6509   -0.1451 C.3       1 <0>         0.1594
      4 N1         -1.3645   -1.6466   -1.2196 N.am      1 <0>        -0.6091
      5 C4         -1.8404   -1.4443   -2.5931 C.3       1 <0>         0.2530
      6 H1         -1.2729   -0.6468   -3.0727 H         1 <0>         0.0675
      7 C5         -1.6111   -2.7516   -3.3151 C.2       1 <0>        -0.5056
      8 C6         -1.0574   -3.6009   -2.4188 C.2       1 <0>         0.2642
      9 C7         -0.9023   -2.9065   -1.1234 C.2       1 <0>         0.5111
     10 O1         -0.4300   -3.4011   -0.1192 O.2       1 <0>        -0.5358
     11 O2         -0.6984   -4.8810   -2.6700 O.3       1 <0>        -0.6540
     12 C8         -1.9276   -3.0437   -4.7168 C.2       1 <0>         0.5078
     13 O3         -2.7848   -3.8636   -4.9890 O.2       1 <0>        -0.4790
     14 C9         -1.2065   -2.3433   -5.7977 C.ar      1 <0>        -0.1718
     15 C10        -0.1378   -1.4949   -5.4924 C.ar      1 <0>        -0.0233
     16 C11         0.5320   -0.8436   -6.5034 C.ar      1 <0>        -0.1658
     17 C12         0.1472   -1.0285   -7.8268 C.ar      1 <0>         0.1395
     18 C13        -0.9150   -1.8713   -8.1347 C.ar      1 <0>        -0.2247
     19 C14        -1.5865   -2.5309   -7.1302 C.ar      1 <0>        -0.0334
     20 O4          0.8098   -0.3843   -8.8204 O.3       1 <0>        -0.3084
     21 C15         0.3624   -0.6193  -10.1570 C.3       1 <0>         0.0986
     22 C16         1.2105    0.1742  -11.1174 C.ar      1 <0>        -0.0877
     23 C17         0.8437    1.4619  -11.4615 C.ar      1 <0>        -0.0818
     24 C18         1.6210    2.1902  -12.3422 C.ar      1 <0>        -0.1141
     25 C19         2.7664    1.6302  -12.8795 C.ar      1 <0>        -0.0270
     26 C20         3.1330    0.3414  -12.5347 C.ar      1 <0>        -0.1138
     27 C21         2.3579   -0.3838  -11.6495 C.ar      1 <0>        -0.0815
     28 Cl1         3.7430    2.5441  -13.9862 Cl        1 <0>        -0.0701
     29 C22        -3.3085   -1.1042   -2.5881 C.2       1 <0>        -0.1076
     30 C23        -3.7142    0.0877   -3.0032 C.2       1 <0>        -0.1434
     31 C24        -5.1590    0.3817   -3.1071 C.ar      1 <0>        -0.0374
     32 C25        -6.0985   -0.5911   -2.7634 C.ar      1 <0>        -0.1166
     33 C26        -7.4457   -0.3102   -2.8626 C.ar      1 <0>        -0.1167
     34 C27        -7.8658    0.9325   -3.3020 C.ar      1 <0>        -0.1315
     35 C28        -6.9394    1.9011   -3.6447 C.ar      1 <0>        -0.1214
     36 C29        -5.5893    1.6352   -3.5437 C.ar      1 <0>        -0.1166
     37 H2          0.7919    2.0047   -0.2573 H         1 <0>         0.0962
     38 H3         -1.0777    1.9564   -0.2973 H         1 <0>         0.0961
     39 H4          0.8504   -0.3804   -0.1153 H         1 <0>         0.1096
     40 H5         -1.4865   -1.1552    0.8157 H         1 <0>         0.0860
     41 H6         -2.2252    0.0261   -0.2921 H         1 <0>         0.0804
     42 H7          0.1615   -1.3504   -4.4648 H         1 <0>         0.1409
     43 H8          1.3573   -0.1878   -6.2684 H         1 <0>         0.1305
     44 H9         -1.2110   -2.0119   -9.1638 H         1 <0>         0.1264
     45 H10        -2.4083   -3.1891   -7.3706 H         1 <0>         0.1321
     46 H11         0.4490   -1.6811  -10.3878 H         1 <0>         0.0749
     47 H12        -0.6787   -0.3107  -10.2513 H         1 <0>         0.0748
     48 H13        -0.0507    1.8988  -11.0424 H         1 <0>         0.1357
     49 H14         1.3342    3.1960  -12.6113 H         1 <0>         0.1362
     50 H15         4.0269   -0.0963  -12.9540 H         1 <0>         0.1364
     51 H16         2.6465   -1.3881  -11.3766 H         1 <0>         0.1361
     52 H17        -4.0301   -1.8314   -2.2463 H         1 <0>         0.1139
     53 H18        -2.9890    0.8437   -3.2656 H         1 <0>         0.1172
     54 H19        -5.7718   -1.5618   -2.4208 H         1 <0>         0.1261
     55 H20        -8.1738   -1.0623   -2.5969 H         1 <0>         0.1200
     56 H21        -8.9214    1.1472   -3.3783 H         1 <0>         0.1169
     57 H22        -7.2738    2.8691   -3.9878 H         1 <0>         0.1183
     58 H23        -4.8671    2.3940   -3.8066 H         1 <0>         0.1210
@<TRIPOS>BOND
     1    1    2 2
     2    1   37 1
     3    1   38 1
     4    2    3 1
     5    2   39 1
     6    3    4 1
     7    3   40 1
     8    3   41 1
     9    4    9 am
    10    4    5 1
    11    5    6 1
    12    5    7 1
    13    5   29 1
    14    7    8 2
    15    7   12 1
    16    8    9 1
    17    8   11 1
    18    9   10 2
    19   12   13 2
    20   12   14 1
    21   14   19 ar
    22   14   15 ar
    23   15   16 ar
    24   15   42 1
    25   16   17 ar
    26   16   43 1
    27   17   18 ar
    28   17   20 1
    29   18   19 ar
    30   18   44 1
    31   19   45 1
    32   20   21 1
    33   21   22 1
    34   21   46 1
    35   21   47 1
    36   22   27 ar
    37   22   23 ar
    38   23   24 ar
    39   23   48 1
    40   24   25 ar
    41   24   49 1
    42   25   26 ar
    43   25   28 1
    44   26   27 ar
    45   26   50 1
    46   27   51 1
    47   29   30 2
    48   29   52 1
    49   30   31 1
    50   30   53 1
    51   31   36 ar
    52   31   32 ar
    53   32   33 ar
    54   32   54 1
    55   33   34 ar
    56   33   55 1
    57   34   35 ar
    58   34   56 1
    59   35   36 ar
    60   35   57 1
    61   36   58 1
@<TRIPOS>MOLECULE
ZINC43765310
   71    74     0     0     0
SMALL
USER_CHARGES

@<TRIPOS>ATOM
      1 C1          0.6102    1.3527    0.0184 C.3       1 <0>        -0.1521
      2 C2          0.4689   -0.1671   -0.0876 C.3       1 <0>        -0.0864
      3 H1         -0.5518   -0.4555    0.1634 H         1 <0>         0.0666
      4 C3          1.4421   -0.8387    0.8833 C.3       1 <0>        -0.0861
      5 C4          1.0471   -0.4948    2.3208 C.3       1 <0>        -0.1828
      6 C5          2.0056   -1.1564    3.2772 C.2       1 <0>         0.4870
      7 O1          2.9200   -1.8396    2.8486 O.co2     1 <0>        -0.7004
      8 O2          1.8668   -1.0084    4.4794 O.co2     1 <0>        -0.7112
      9 C6          0.7872   -0.6103   -1.5170 C.3       1 <0>        -0.0756
     10 H2          1.8201   -0.3707   -1.7696 H         1 <0>         0.0684
     11 C7          0.5249   -2.1227   -1.6864 C.3       1 <0>        -0.1203
     12 C8         -0.0564   -2.3101   -3.1024 C.3       1 <0>        -0.1148
     13 C9         -0.1102   -0.9084   -3.7239 C.3       1 <0>        -0.0714
     14 H3          0.8241   -0.7257   -4.2548 H         1 <0>         0.0623
     15 C10        -0.1914    0.0581   -2.5270 C.3       1 <0>        -0.0479
     16 C11        -1.5817    0.0070   -1.8897 C.3       1 <0>        -0.1082
     17 C12        -2.6616    0.2840   -2.9328 C.3       1 <0>        -0.1181
     18 C13        -2.6053   -0.8132   -4.0006 C.3       1 <0>        -0.0696
     19 H4         -2.7227   -1.7891   -3.5296 H         1 <0>         0.0740
     20 C14        -1.2593   -0.7444   -4.6912 C.3       1 <0>        -0.0684
     21 H5         -1.1710    0.2269   -5.1779 H         1 <0>         0.0669
     22 C15        -1.1995   -1.8225   -5.7761 C.3       1 <0>        -0.1179
     23 C16        -2.3256   -1.5942   -6.7860 C.3       1 <0>        -0.1159
     24 C17        -3.6759   -1.6634   -6.0702 C.3       1 <0>        -0.0685
     25 H6         -4.4777   -1.4997   -6.7903 H         1 <0>         0.0743
     26 C18        -3.7315   -0.5918   -5.0129 C.3       1 <0>        -0.0459
     27 C19        -5.0820   -0.6715   -4.2987 C.3       1 <0>        -0.1059
     28 C20        -5.2390   -2.0509   -3.6557 C.3       1 <0>        -0.1398
     29 C21        -5.1697   -3.1293   -4.7389 C.3       1 <0>         0.0919
     30 H7         -5.2814   -4.1120   -4.2808 H         1 <0>         0.0805
     31 C22        -3.8429   -3.0408   -5.4256 C.3       1 <0>        -0.1162
     32 O3         -6.2206   -2.9226   -5.6848 O.3       1 <0>        -0.3415
     33 C23        -7.3906   -3.5329   -5.4389 C.2       1 <0>         0.4551
     34 O4         -7.5182   -4.2199   -4.4532 O.2       1 <0>        -0.5138
     35 C24        -8.5450   -3.3612   -6.3923 C.3       1 <0>        -0.1475
     36 C25        -3.5751    0.7874   -5.6564 C.3       1 <0>        -0.1445
     37 C26         0.2342    1.4804   -2.8968 C.3       1 <0>        -0.1421
     38 H8          1.5340    1.6665   -0.4675 H         1 <0>         0.0500
     39 H9         -0.2383    1.8315   -0.4704 H         1 <0>         0.0543
     40 H10         0.6355    1.6428    1.0688 H         1 <0>         0.0562
     41 H11         1.4055   -1.9193    0.7450 H         1 <0>         0.0577
     42 H12         2.4535   -0.4816    0.6891 H         1 <0>         0.0547
     43 H13         1.0837    0.5857    2.4591 H         1 <0>         0.0565
     44 H14         0.0357   -0.8519    2.5150 H         1 <0>         0.0515
     45 H15         1.4583   -2.6772   -1.5891 H         1 <0>         0.0619
     46 H16        -0.1924   -2.4636   -0.9398 H         1 <0>         0.0636
     47 H17         0.5922   -2.9579   -3.6922 H         1 <0>         0.0569
     48 H18        -1.0589   -2.7340   -3.0440 H         1 <0>         0.0599
     49 H19        -1.7434   -0.9811   -1.4588 H         1 <0>         0.0638
     50 H20        -1.6433    0.7568   -1.1010 H         1 <0>         0.0645
     51 H21        -3.6413    0.2793   -2.4551 H         1 <0>         0.0594
     52 H22        -2.4824    1.2544   -3.3958 H         1 <0>         0.0631
     53 H23        -0.2379   -1.7710   -6.2866 H         1 <0>         0.0575
     54 H24        -1.3156   -2.8050   -5.3186 H         1 <0>         0.0640
     55 H25        -2.2080   -0.6128   -7.2455 H         1 <0>         0.0646
     56 H26        -2.2835   -2.3635   -7.5571 H         1 <0>         0.0575
     57 H27        -5.1307    0.0967   -3.5269 H         1 <0>         0.0670
     58 H28        -5.8841   -0.5133   -5.0196 H         1 <0>         0.0629
     59 H29        -4.4376   -2.2087   -2.9340 H         1 <0>         0.0840
     60 H30        -6.2018   -2.1075   -3.1477 H         1 <0>         0.0636
     61 H31        -3.8012   -3.8102   -6.1966 H         1 <0>         0.0663
     62 H32        -3.0414   -3.2045   -4.7052 H         1 <0>         0.0920
     63 H33        -8.5067   -4.1406   -7.1533 H         1 <0>         0.1028
     64 H34        -9.4837   -3.4352   -5.8433 H         1 <0>         0.1006
     65 H35        -8.4795   -2.3836   -6.8699 H         1 <0>         0.0928
     66 H36        -2.6129    0.8440   -6.1653 H         1 <0>         0.0610
     67 H37        -4.3773    0.9451   -6.3774 H         1 <0>         0.0492
     68 H38        -3.6238    1.5559   -4.8849 H         1 <0>         0.0575
     69 H39         1.2761    1.4762   -3.2172 H         1 <0>         0.0509
     70 H40        -0.3939    1.8483   -3.7082 H         1 <0>         0.0489
     71 H41         0.1237    2.1301   -2.0286 H         1 <0>         0.0687
@<TRIPOS>BOND
     1    1    2 1
     2    1   38 1
     3    1   39 1
     4    1   40 1
     5    2    3 1
     6    2    4 1
     7    2    9 1
     8    4    5 1
     9    4   41 1
    10    4   42 1
    11    5    6 1
    12    5   43 1
    13    5   44 1
    14    6    7 2
    15    6    8 1
    16    9   10 1
    17    9   15 1
    18    9   11 1
    19   11   12 1
    20   11   45 1
    21   11   46 1
    22   12   13 1
    23   12   47 1
    24   12   48 1
    25   13   14 1
    26   13   20 1
    27   13   15 1
    28   15   16 1
    29   15   37 1
    30   16   17 1
    31   16   49 1
    32   16   50 1
    33   17   18 1
    34   17   51 1
    35   17   52 1
    36   18   19 1
    37   18   26 1
    38   18   20 1
    39   20   21 1
    40   20   22 1
    41   22   23 1
    42   22   53 1
    43   22   54 1
    44   23   24 1
    45   23   55 1
    46   23   56 1
    47   24   25 1
    48   24   31 1
    49   24   26 1
    50   26   27 1
    51   26   36 1
    52   27   28 1
    53   27   57 1
    54   27   58 1
    55   28   29 1
    56   28   59 1
    57   28   60 1
    58   29   30 1
    59   29   31 1
    60   29   32 1
    61   31   61 1
    62   31   62 1
    63   32   33 1
    64   33   34 2
    65   33   35 1
    66   35   63 1
    67   35   64 1
    68   35   65 1
    69   36   66 1
    70   36   67 1
    71   36   68 1
    72   37   69 1
    73   37   70 1
    74   37   71 1
@<TRIPOS>MOLECULE
ZINC22505725
   67    69     0     0     0
SMALL
USER_CHARGES

@<TRIPOS>ATOM
      1 C1         -0.0187    1.5258    0.0104 C.3       1 <0>        -0.1245
      2 C2          1.4167    2.0554   -0.0004 C.3       1 <0>        -0.1189
      3 C3          1.6006    3.0540    1.1440 C.3       1 <0>        -0.1246
      4 C4          2.7817    2.6203    2.0145 C.3       1 <0>        -0.1192
      5 C5          2.3395    2.5537    3.4777 C.3       1 <0>        -0.1127
      6 C6          2.7618    1.2110    4.0775 C.3       1 <0>        -0.0525
      7 C7          1.5401    0.4641    4.5472 C.2       1 <0>         0.0910
      8 N1          0.7154    1.0259    5.3490 N.2       1 <0>        -0.3125
      9 N2         -0.4204    0.3315    5.7857 N.2       1 <0>        -0.4519
     10 C8         -1.3000    0.9307    6.6409 C.2       1 <0>         0.4630
     11 N3         -1.2426    2.1538    7.1515 N.2       1 <0>        -0.7118
     12 C9         -2.1290    2.6562    7.9669 C.2       1 <0>         0.5175
     13 O1         -2.0379    3.7838    8.4117 O.2       1 <0>        -0.5558
     14 C10        -3.2866    1.7308    8.3220 C.3       1 <0>        -0.1001
     15 H1         -4.2398    2.1384    7.9856 H         1 <0>         0.1247
     16 S1         -2.8047    0.2547    7.3303 S.3       1 <0>        -0.2262
     17 C11        -3.3144    1.4201    9.8199 C.3       1 <0>        -0.1055
     18 C12        -4.5411    0.6059   10.1414 C.2       1 <0>         0.5177
     19 O2         -5.3167    0.3039    9.2593 O.2       1 <0>        -0.5261
     20 N4         -4.7762    0.2134   11.4091 N.am      1 <0>        -0.7333
     21 C13        -5.9687   -0.5781   11.7216 C.3       1 <0>         0.1466
     22 C14        -5.6775   -2.0593   11.4724 C.3       1 <0>        -0.1307
     23 C15        -6.9229   -2.8859   11.7988 C.3       1 <0>        -0.1168
     24 C16        -7.3010   -2.6805   13.2670 C.3       1 <0>        -0.1210
     25 C17        -7.5922   -1.1992   13.5163 C.3       1 <0>        -0.1153
     26 C18        -6.3468   -0.3727   13.1899 C.3       1 <0>        -0.1262
     27 C19         1.2896   -0.9444    4.0733 C.3       1 <0>        -0.0930
     28 C20        -0.1182   -1.0406    3.4819 C.3       1 <0>        -0.0963
     29 C21        -0.0279   -1.4786    2.0187 C.3       1 <0>        -0.1213
     30 C22        -0.8596   -0.5321    1.1508 C.3       1 <0>        -0.1230
     31 C23         0.0021   -0.0041    0.0020 C.3       1 <0>        -0.1186
     32 H2         -0.5289    1.8773    0.9072 H         1 <0>         0.0690
     33 H3         -0.5459    1.8868   -0.8726 H         1 <0>         0.0526
     34 H4          2.1113    1.2250    0.1268 H         1 <0>         0.0662
     35 H5          1.6137    2.5515   -0.9507 H         1 <0>         0.0518
     36 H6          1.7960    4.0448    0.7338 H         1 <0>         0.0528
     37 H7          0.6946    3.0836    1.7494 H         1 <0>         0.0691
     38 H8          3.1274    1.6374    1.6943 H         1 <0>         0.0648
     39 H9          3.5925    3.3416    1.9124 H         1 <0>         0.0529
     40 H10         2.8077    3.3643    4.0360 H         1 <0>         0.0565
     41 H11         1.2554    2.6521    3.5345 H         1 <0>         0.0750
     42 H12         3.2793    0.6216    3.3206 H         1 <0>         0.0697
     43 H13         3.4289    1.3840    4.9220 H         1 <0>         0.0663
     44 H14        -2.4222    0.8553   10.0904 H         1 <0>         0.0993
     45 H15        -3.3390    2.3525   10.3840 H         1 <0>         0.1084
     46 H16        -4.1558    0.4550   12.1146 H         1 <0>         0.3985
     47 H17        -6.7941   -0.2580   11.0857 H         1 <0>         0.0861
     48 H18        -5.4081   -2.2056   10.4264 H         1 <0>         0.0704
     49 H19        -4.8521   -2.3793   12.1083 H         1 <0>         0.0621
     50 H20        -7.7483   -2.5658   11.1628 H         1 <0>         0.0636
     51 H21        -6.7154   -3.9411   11.6212 H         1 <0>         0.0634
     52 H22        -8.1883   -3.2693   13.4995 H         1 <0>         0.0614
     53 H23        -6.4756   -3.0005   13.9029 H         1 <0>         0.0616
     54 H24        -8.4176   -0.8792   12.8803 H         1 <0>         0.0644
     55 H25        -7.8616   -1.0529   14.5623 H         1 <0>         0.0647
     56 H26        -5.5214   -0.6927   13.8258 H         1 <0>         0.0669
     57 H27        -6.5543    0.6826   13.3674 H         1 <0>         0.0679
     58 H28         2.0228   -1.2070    3.3107 H         1 <0>         0.0552
     59 H29         1.3781   -1.6319    4.9145 H         1 <0>         0.0604
     60 H30        -0.6995   -1.7711    4.0446 H         1 <0>         0.0557
     61 H31        -0.6042   -0.0667    3.5404 H         1 <0>         0.0727
     62 H32         1.0123   -1.4494    1.6943 H         1 <0>         0.0615
     63 H33        -0.4112   -2.4941    1.9191 H         1 <0>         0.0498
     64 H34        -1.7164   -1.0699    0.7449 H         1 <0>         0.0517
     65 H35        -1.2091    0.3038    1.7568 H         1 <0>         0.0678
     66 H36        -0.3941   -0.3676   -0.9461 H         1 <0>         0.0514
     67 H37         1.0269   -0.3542    0.1258 H         1 <0>         0.0657
@<TRIPOS>BOND
     1    1   31 1
     2    1    2 1
     3    1   32 1
     4    1   33 1
     5    2    3 1
     6    2   34 1
     7    2   35 1
     8    3    4 1
     9    3   36 1
    10    3   37 1
    11    4    5 1
    12    4   38 1
    13    4   39 1
    14    5    6 1
    15    5   40 1
    16    5   41 1
    17    6    7 1
    18    6   42 1
    19    6   43 1
    20    7    8 2
    21    7   27 1
    22    8    9 1
    23    9   10 1
    24   10   16 1
    25   10   11 2
    26   11   12 1
    27   12   13 2
    28   12   14 1
    29   14   15 1
    30   14   16 1
    31   14   17 1
    32   17   18 1
    33   17   44 1
    34   17   45 1
    35   18   19 2
    36   18   20 am
    37   20   21 1
    38   20   46 1
    39   21   26 1
    40   21   22 1
    41   21   47 1
    42   22   23 1
    43   22   48 1
    44   22   49 1
    45   23   24 1
    46   23   50 1
    47   23   51 1
    48   24   25 1
    49   24   52 1
    50   24   53 1
    51   25   26 1
    52   25   54 1
    53   25   55 1
    54   26   56 1
    55   26   57 1
    56   27   28 1
    57   27   58 1
    58   27   59 1
    59   28   29 1
    60   28   60 1
    61   28   61 1
    62   29   30 1
    63   29   62 1
    64   29   63 1
    65   30   31 1
    66   30   64 1
    67   30   65 1
    68   31   66 1
    69   31   67 1
@<TRIPOS>MOLECULE
ZINC16041223
   72    74     0     0     0
SMALL
USER_CHARGES
3-[(3R,3aS,5aR,6S,9aS,9bR)-3-[(1R)-1,5-dimethylhexyl]-3a,6-dimethyl-7-oxo-1,2,3,4,5,5a,8,9,9a,9b-decahydrocyclopenta[f]naphthalen-6-yl]propanoic acid
@<TRIPOS>ATOM
      1 C1          5.1980    3.6540   -0.4839 C.3       1 <0>        -0.1500
      2 C2          3.7507    3.1992   -0.6825 C.3       1 <0>        -0.0965
      3 C3          3.6818    1.6724   -0.6125 C.3       1 <0>        -0.1476
      4 C4          2.8720    3.8003    0.4163 C.3       1 <0>        -0.1182
      5 C5          1.4074    3.4486    0.1476 C.3       1 <0>        -0.1229
      6 C6          0.5286    4.0496    1.2464 C.3       1 <0>        -0.1263
      7 C7         -0.9359    3.6979    0.9777 C.3       1 <0>        -0.0809
      8 H1         -1.3091    4.3025    0.1511 H         1 <0>         0.0696
      9 C8         -1.0462    2.2154    0.6156 C.3       1 <0>        -0.1475
     10 C9         -1.7627    3.9785    2.2257 C.3       1 <0>        -0.0770
     11 H2         -2.7958    3.6608    2.0838 H         1 <0>         0.0667
     12 C10        -1.1505    3.2645    3.4599 C.3       1 <0>        -0.1201
     13 C11        -0.5533    4.3773    4.3684 C.3       1 <0>        -0.1159
     14 C12        -0.4177    5.5553    3.3977 C.3       1 <0>        -0.1043
     15 H3          0.4227    5.3032    2.7049 H         1 <0>         0.1006
     16 C13        -1.7354    5.4685    2.6063 C.3       1 <0>        -0.0494
     17 C14        -1.7253    6.4695    1.4794 C.3       1 <0>        -0.1020
     18 C15        -1.4954    7.8797    2.0678 C.3       1 <0>        -0.1140
     19 C16        -0.1611    7.9283    2.7943 C.3       1 <0>        -0.0596
     20 H4          0.6073    7.5983    2.0723 H         1 <0>         0.0719
     21 C17        -0.1310    6.9188    3.9544 C.3       1 <0>        -0.0725
     22 H5          0.9053    6.9063    4.3589 H         1 <0>         0.0751
     23 C18        -1.0521    7.3587    5.0819 C.3       1 <0>        -0.1054
     24 C19        -0.5103    8.6752    5.6712 C.3       1 <0>        -0.1702
     25 C20        -0.4946    9.6806    4.5390 C.2       1 <0>         0.3779
     26 O1         -1.0531   10.7457    4.6510 O.2       1 <0>        -0.4586
     27 C21         0.2359    9.3166    3.2671 C.3       1 <0>        -0.1010
     28 C22        -0.0673   10.3716    2.1977 C.3       1 <0>        -0.1364
     29 C23         1.7487    9.3460    3.5417 C.3       1 <0>        -0.0795
     30 C24         2.1535   10.7424    4.0184 C.3       1 <0>        -0.1630
     31 C25         3.6360   10.7712    4.2875 C.2       1 <0>         0.4601
     32 O2          4.3006    9.7769    4.1157 O.co2     1 <0>        -0.6416
     33 C26        -2.9743    5.6905    3.4829 C.3       1 <0>        -0.1470
     34 H6          5.5539    3.3185    0.4902 H         1 <0>         0.0542
     35 H7          5.8241    3.2258   -1.2667 H         1 <0>         0.0506
     36 H8          5.2471    4.7418   -0.5338 H         1 <0>         0.0565
     37 H9          3.3948    3.5348   -1.6566 H         1 <0>         0.0661
     38 H10         4.3078    1.2442   -1.3953 H         1 <0>         0.0493
     39 H11         4.0377    1.3369    0.3616 H         1 <0>         0.0528
     40 H12         2.6507    1.3484   -0.7540 H         1 <0>         0.0548
     41 H13         2.9899    4.8839    0.4238 H         1 <0>         0.0636
     42 H14         3.1714    3.3956    1.3831 H         1 <0>         0.0610
     43 H15         1.1080    3.8533   -0.8192 H         1 <0>         0.0565
     44 H16         1.2895    2.3650    0.1401 H         1 <0>         0.0651
     45 H17         0.8280    3.6449    2.2132 H         1 <0>         0.0722
     46 H18         0.6466    5.1332    1.2539 H         1 <0>         0.0754
     47 H19        -0.5517    2.0368   -0.3392 H         1 <0>         0.0547
     48 H20        -0.5682    1.6157    1.3902 H         1 <0>         0.0541
     49 H21        -2.0974    1.9376    0.5379 H         1 <0>         0.0482
     50 H22        -1.9230    2.7170    3.9974 H         1 <0>         0.0562
     51 H23        -0.3615    2.5838    3.1399 H         1 <0>         0.0670
     52 H24         0.4315    4.0738    4.7353 H         1 <0>         0.0599
     53 H25        -1.2107    4.6062    5.1995 H         1 <0>         0.0669
     54 H26        -0.9220    6.2620    0.7716 H         1 <0>         0.0669
     55 H27        -2.6830    6.4538    0.9542 H         1 <0>         0.0579
     56 H28        -1.4958    8.5732    1.2235 H         1 <0>         0.0631
     57 H29        -2.3024    8.1429    2.7395 H         1 <0>         0.0615
     58 H30        -1.0930    6.6071    5.8637 H         1 <0>         0.0732
     59 H31        -2.0513    7.5827    4.7115 H         1 <0>         0.0697
     60 H32         0.4076    8.5234    6.0379 H         1 <0>         0.0902
     61 H33        -1.1750    9.0175    6.4607 H         1 <0>         0.0820
     62 H34        -1.1350   10.3702    1.9784 H         1 <0>         0.0532
     63 H35         0.2271   11.3551    2.5639 H         1 <0>         0.0681
     64 H36         0.4903   10.1398    1.2903 H         1 <0>         0.0592
     65 H37         1.9924    8.6143    4.3121 H         1 <0>         0.0671
     66 H38         2.2889    9.1037    2.6266 H         1 <0>         0.0731
     67 H39         1.9097   11.4740    3.2480 H         1 <0>         0.0691
     68 H40         1.6133   10.9847    4.9335 H         1 <0>         0.0576
     69 H41        -2.8538    5.1550    4.4246 H         1 <0>         0.0573
     70 H42        -3.0916    6.7555    3.6831 H         1 <0>         0.0591
     71 H43        -3.8578    5.3188    2.9640 H         1 <0>         0.0477
     72 O3          4.2181   11.9015    4.7180 O.co2     1 <0>        -0.7758
@<TRIPOS>BOND
     1    1    2 1
     2    1   34 1
     3    1   35 1
     4    1   36 1
     5    2    3 1
     6    2    4 1
     7    2   37 1
     8    3   38 1
     9    3   39 1
    10    3   40 1
    11    4    5 1
    12    4   41 1
    13    4   42 1
    14    5    6 1
    15    5   43 1
    16    5   44 1
    17    6    7 1
    18    6   45 1
    19    6   46 1
    20    7    8 1
    21    7    9 1
    22    7   10 1
    23    9   47 1
    24    9   48 1
    25    9   49 1
    26   10   11 1
    27   10   16 1
    28   10   12 1
    29   12   13 1
    30   12   50 1
    31   12   51 1
    32   13   14 1
    33   13   52 1
    34   13   53 1
    35   14   15 1
    36   14   21 1
    37   14   16 1
    38   16   17 1
    39   16   33 1
    40   17   18 1
    41   17   54 1
    42   17   55 1
    43   18   19 1
    44   18   56 1
    45   18   57 1
    46   19   20 1
    47   19   27 1
    48   19   21 1
    49   21   22 1
    50   21   23 1
    51   23   24 1
    52   23   58 1
    53   23   59 1
    54   24   25 1
    55   24   60 1
    56   24   61 1
    57   25   26 2
    58   25   27 1
    59   27   28 1
    60   27   29 1
    61   28   62 1
    62   28   63 1
    63   28   64 1
    64   29   30 1
    65   29   65 1
    66   29   66 1
    67   30   31 1
    68   30   67 1
    69   30   68 1
    70   31   32 2
    71   31   72 1
    72   33   69 1
    73   33   70 1
    74   33   71 1
@<TRIPOS>MOLECULE
ZINC27516964
   55    59     0     0     0
SMALL
USER_CHARGES
(4-isopentyloxyphenyl)-methyl-BLAHone
@<TRIPOS>ATOM
      1 C1         -6.8393   -0.5339   -0.0290 C.3       1 <0>        -0.1463
      2 C2         -5.3403   -0.5933   -0.3298 C.3       1 <0>        -0.0870
      3 H1         -5.1847   -0.3938   -1.4003 H         1 <0>         0.0731
      4 C3         -4.6031    0.4569    0.5063 C.3       1 <0>        -0.1124
      5 C4         -3.1537    0.5750    0.0335 C.3       1 <0>        -0.0593
      6 C5         -2.5253   -0.8156    0.0201 C.2       1 <0>        -0.0126
      7 C6         -3.3001   -1.9214    0.0219 C.2       1 <0>        -0.2292
      8 S1         -2.1570   -3.2760    0.0058 S.3       1 <0>         0.0625
      9 C7         -0.6466   -2.3453   -0.0035 C.2       1 <0>         0.1906
     10 C8         -1.0774   -1.0209    0.0067 C.2       1 <0>        -0.2706
     11 C9          0.0021   -0.0041    0.0020 C.2       1 <0>         0.3753
     12 N1         -0.0158    1.3114    0.0093 N.2       1 <0>        -0.5544
     13 C10         1.2410    1.7755   -0.0003 C.2       1 <0>         0.2646
     14 N2          2.0787    0.7608   -0.0136 N.2       1 <0>        -0.3085
     15 N3          1.3048   -0.4109   -0.0124 N.pl3     1 <0>        -0.3736
     16 C11         1.6302   -1.7137   -0.0224 C.2       1 <0>         0.6638
     17 O1          2.8029   -2.0356   -0.0358 O.3       1 <0>        -0.5550
     18 N4          0.6822   -2.6712   -0.0176 N.2       1 <0>        -0.5939
     19 C12         1.6273    3.2078    0.0029 C.ar      1 <0>        -0.0344
     20 C13         0.6445    4.1961    0.0109 C.ar      1 <0>        -0.0362
     21 C14         1.0067    5.5267    0.0192 C.ar      1 <0>        -0.2144
     22 C15         2.3487    5.8823    0.0084 C.ar      1 <0>         0.1355
     23 C16         3.3299    4.9001   -0.0054 C.ar      1 <0>        -0.1561
     24 C17         2.9738    3.5679   -0.0079 C.ar      1 <0>        -0.0458
     25 O2          2.7025    7.1940    0.0108 O.3       1 <0>        -0.3159
     26 C18         1.6422    8.1519    0.0252 C.3       1 <0>         0.0544
     27 C19         2.2308    9.5642    0.0258 C.3       1 <0>        -0.1153
     28 C20         1.0956   10.5898    0.0413 C.3       1 <0>        -0.0939
     29 C21         1.6816   11.9974    0.1676 C.3       1 <0>        -0.1481
     30 C22         0.2960   10.4851   -1.2590 C.3       1 <0>        -0.1554
     31 C23        -4.7966   -1.9826    0.0342 C.3       1 <0>        -0.0145
     32 H2         -7.2265    0.4619   -0.2904 H         1 <0>         0.0539
     33 H3         -7.0062   -0.7227    1.0418 H         1 <0>         0.0542
     34 H4         -7.3628   -1.2982   -0.6221 H         1 <0>         0.0538
     35 H5         -5.1018    1.4309    0.3941 H         1 <0>         0.0618
     36 H6         -4.6162    0.1581    1.5648 H         1 <0>         0.0626
     37 H7         -3.1322    1.0033   -0.9795 H         1 <0>         0.0718
     38 H8         -2.5962    1.2291    0.7200 H         1 <0>         0.0820
     39 H9         -0.3996    3.9201    0.0152 H         1 <0>         0.1387
     40 H10         0.2456    6.2929    0.0299 H         1 <0>         0.1294
     41 H11         4.3731    5.1796   -0.0138 H         1 <0>         0.1333
     42 H12         3.7375    2.8043   -0.0186 H         1 <0>         0.1393
     43 H13         1.0139    8.0169   -0.8676 H         1 <0>         0.0656
     44 H14         1.0311    8.0089    0.9286 H         1 <0>         0.0625
     45 H15         2.8591    9.6992    0.9185 H         1 <0>         0.0740
     46 H16         2.8418    9.7072   -0.8776 H         1 <0>         0.0743
     47 H17         0.4330   10.3904    0.8964 H         1 <0>         0.0733
     48 H18         0.8654   12.7347    0.1787 H         1 <0>         0.0568
     49 H19         2.3442   12.1968   -0.6875 H         1 <0>         0.0563
     50 H20         2.2565   12.0727    1.1024 H         1 <0>         0.0562
     51 H21        -0.5202   11.2225   -1.2479 H         1 <0>         0.0566
     52 H22        -0.1253    9.4731   -1.3498 H         1 <0>         0.0577
     53 H23         0.9587   10.6845   -2.1140 H         1 <0>         0.0573
     54 H24        -5.1539   -2.2654    1.0354 H         1 <0>         0.0713
     55 H25        -5.1496   -2.7191   -0.7026 H         1 <0>         0.0703
@<TRIPOS>BOND
     1    1    2 1
     2    1   32 1
     3    1   33 1
     4    1   34 1
     5    2    3 1
     6    2   31 1
     7    2    4 1
     8    4    5 1
     9    4   35 1
    10    4   36 1
    11    5    6 1
    12    5   37 1
    13    5   38 1
    14    6   10 1
    15    6    7 2
    16    7    8 1
    17    7   31 1
    18    8    9 1
    19    9   18 1
    20    9   10 2
    21   10   11 1
    22   11   15 1
    23   11   12 2
    24   12   13 1
    25   13   14 2
    26   13   19 1
    27   14   15 1
    28   15   16 1
    29   16   17 1
    30   16   18 2
    31   19   24 ar
    32   19   20 ar
    33   20   21 ar
    34   20   39 1
    35   21   22 ar
    36   21   40 1
    37   22   23 ar
    38   22   25 1
    39   23   24 ar
    40   23   41 1
    41   24   42 1
    42   25   26 1
    43   26   27 1
    44   26   43 1
    45   26   44 1
    46   27   28 1
    47   27   45 1
    48   27   46 1
    49   28   29 1
    50   28   30 1
    51   28   47 1
    52   29   48 1
    53   29   49 1
    54   29   50 1
    55   30   51 1
    56   30   52 1
    57   30   53 1
    58   31   54 1
    59   31   55 1
@<TRIPOS>MOLECULE
ZINC35696939
   62    65     0     0     0
SMALL
USER_CHARGES

@<TRIPOS>ATOM
      1 C1          0.3865    1.1490    0.0234 C.3       1 <0>        -0.1127
      2 C2          0.0329   -0.3157    0.0497 C.ar      1 <0>        -0.0332
      3 C3         -0.0798   -1.0210   -1.1341 C.ar      1 <0>        -0.1215
      4 C4         -0.4040   -2.3643   -1.1100 C.ar      1 <0>        -0.1187
      5 C5         -0.6153   -3.0029    0.0980 C.ar      1 <0>        -0.1305
      6 C6         -0.5018   -2.2980    1.2814 C.ar      1 <0>        -0.0903
      7 C7         -0.1732   -0.9553    1.2575 C.ar      1 <0>        -0.0681
      8 C8         -0.0443   -0.1880    2.5481 C.3       1 <0>         0.2555
      9 H1          0.3678    0.7931    2.3118 H         1 <0>         0.0775
     10 C9         -1.4336    0.0138    3.1106 C.2       1 <0>        -0.3941
     11 C10        -1.6933   -0.4749    4.3766 C.2       1 <0>         0.3038
     12 N1         -0.7478   -1.0963    5.0624 N.2       1 <0>        -0.5974
     13 C11         0.4794   -1.3045    4.6316 C.2       1 <0>         0.3187
     14 N2          0.9365   -0.9014    3.4088 N.pl3     1 <0>        -0.5111
     15 C12         2.2507   -1.1951    3.1039 C.2       1 <0>         0.2343
     16 C13         2.9773   -1.8550    4.0326 C.2       1 <0>        -0.3075
     17 S1          1.7953   -2.0617    5.3472 S.3       1 <0>         0.1440
     18 C14         2.8384   -0.8041    1.8145 C.2       1 <0>        -0.4712
     19 C15         4.0699   -1.2333    1.4780 C.2       1 <0>         0.5037
     20 O1          4.7105   -2.1355    2.2607 O.3       1 <0>        -0.7049
     21 N3          4.6815   -0.7528    0.3324 N.pl3     1 <0>        -0.7501
     22 C16         5.9720   -1.3000   -0.0935 C.3       1 <0>         0.1495
     23 C17         5.7386   -2.5023   -1.0104 C.3       1 <0>        -0.1576
     24 C18         6.7565   -0.2262   -0.8503 C.3       1 <0>        -0.1567
     25 C19        -3.0627   -0.2985    4.9806 C.3       1 <0>        -0.1162
     26 C20        -2.4236    0.6744    2.3731 C.2       1 <0>         0.5367
     27 O2         -3.5170    0.8821    2.8699 O.2       1 <0>        -0.5501
     28 O3         -2.1669    1.0816    1.1103 O.3       1 <0>        -0.3398
     29 C21        -3.1822    1.8449    0.4557 C.3       1 <0>         0.1078
     30 C22        -2.7747    2.1030   -0.9720 C.ar      1 <0>        -0.0826
     31 C23        -2.1314    3.2803   -1.3051 C.ar      1 <0>        -0.0974
     32 C24        -1.7576    3.5170   -2.6148 C.ar      1 <0>        -0.1244
     33 C25        -2.0267    2.5763   -3.5912 C.ar      1 <0>        -0.1152
     34 C26        -2.6693    1.3986   -3.2579 C.ar      1 <0>        -0.1223
     35 C27        -3.0392    1.1600   -1.9475 C.ar      1 <0>        -0.0889
     36 H2          1.4640    1.2648    0.1404 H         1 <0>         0.0634
     37 H3          0.0758    1.5807   -0.9280 H         1 <0>         0.0595
     38 H4         -0.1246    1.6609    0.8388 H         1 <0>         0.0746
     39 H5          0.0853   -0.5222   -2.0777 H         1 <0>         0.1113
     40 H6         -0.4927   -2.9151   -2.0347 H         1 <0>         0.1112
     41 H7         -0.8694   -4.0524    0.1168 H         1 <0>         0.1111
     42 H8         -0.6672   -2.7968    2.2250 H         1 <0>         0.1013
     43 H9          4.0082   -2.1739    3.9889 H         1 <0>         0.2312
     44 H10         2.2827   -0.1728    1.1370 H         1 <0>         0.0929
     45 H11         4.2555   -0.0538   -0.1881 H         1 <0>         0.3821
     46 H12         6.5397   -1.6154    0.7819 H         1 <0>         0.0826
     47 H13         5.2488   -2.1712   -1.9261 H         1 <0>         0.0439
     48 H14         6.6953   -2.9630   -1.2562 H         1 <0>         0.0489
     49 H15         5.1052   -3.2293   -0.5020 H         1 <0>         0.0584
     50 H16         6.9228    0.6303   -0.1971 H         1 <0>         0.0551
     51 H17         7.7167   -0.6334   -1.1672 H         1 <0>         0.0592
     52 H18         6.1889    0.0892   -1.7257 H         1 <0>         0.0506
     53 H19        -3.7173   -1.0993    4.6368 H         1 <0>         0.0782
     54 H20        -2.9875   -0.3321    6.0675 H         1 <0>         0.0641
     55 H21        -3.4737    0.6635    4.6743 H         1 <0>         0.1128
     56 H22        -4.1205    1.2903    0.4712 H         1 <0>         0.0700
     57 H23        -3.3132    2.7950    0.9736 H         1 <0>         0.0667
     58 H24        -1.9211    4.0153   -0.5423 H         1 <0>         0.1214
     59 H25        -1.2556    4.4371   -2.8751 H         1 <0>         0.1209
     60 H26        -1.7353    2.7615   -4.6145 H         1 <0>         0.1192
     61 H27        -2.8799    0.6637   -4.0209 H         1 <0>         0.1204
     62 H28        -3.5379    0.2382   -1.6865 H         1 <0>         0.1202
@<TRIPOS>BOND
     1    1    2 1
     2    1   36 1
     3    1   37 1
     4    1   38 1
     5    2    7 ar
     6    2    3 ar
     7    3    4 ar
     8    3   39 1
     9    4    5 ar
    10    4   40 1
    11    5    6 ar
    12    5   41 1
    13    6    7 ar
    14    6   42 1
    15    7    8 1
    16    8    9 1
    17    8   14 1
    18    8   10 1
    19   10   11 2
    20   10   26 1
    21   11   12 1
    22   11   25 1
    23   12   13 2
    24   13   17 1
    25   13   14 1
    26   14   15 1
    27   15   16 2
    28   15   18 1
    29   16   17 1
    30   16   43 1
    31   18   19 2
    32   18   44 1
    33   19   20 1
    34   19   21 1
    35   21   22 1
    36   21   45 1
    37   22   23 1
    38   22   24 1
    39   22   46 1
    40   23   47 1
    41   23   48 1
    42   23   49 1
    43   24   50 1
    44   24   51 1
    45   24   52 1
    46   25   53 1
    47   25   54 1
    48   25   55 1
    49   26   27 2
    50   26   28 1
    51   28   29 1
    52   29   30 1
    53   29   56 1
    54   29   57 1
    55   30   35 ar
    56   30   31 ar
    57   31   32 ar
    58   31   58 1
    59   32   33 ar
    60   32   59 1
    61   33   34 ar
    62   33   60 1
    63   34   35 ar
    64   34   61 1
    65   35   62 1
@<TRIPOS>MOLECULE
ZINC36065009
   62    65     0     0     0
SMALL
USER_CHARGES

@<TRIPOS>ATOM
      1 C1          0.3943    1.2677    0.1319 C.3       1 <0>        -0.0915
      2 C2          0.1592   -0.2201    0.1804 C.2       1 <0>         0.3074
      3 C3         -1.1202   -0.7180    0.0242 C.2       1 <0>        -0.3986
      4 C4         -1.3048   -2.2180    0.0801 C.3       1 <0>         0.2655
      5 H1         -2.0091   -2.4398    0.8818 H         1 <0>         0.0762
      6 N1         -0.0864   -3.0421    0.3000 N.pl3     1 <0>        -0.5135
      7 C5         -0.0182   -4.4184    0.3848 C.2       1 <0>         0.2295
      8 C6          1.1963   -4.9745    0.5892 C.2       1 <0>        -0.3036
      9 S1          2.2509   -3.5402    0.6620 S.3       1 <0>         0.1387
     10 C7          1.0870   -2.3533    0.4305 C.2       1 <0>         0.3312
     11 N2          1.1799   -1.0409    0.3667 N.2       1 <0>        -0.5931
     12 C8         -1.2241   -5.2494    0.2579 C.2       1 <0>        -0.4705
     13 C9         -1.1513   -6.5781    0.4664 C.2       1 <0>         0.5036
     14 O1          0.0508   -7.1651    0.6840 O.3       1 <0>        -0.7013
     15 N3         -2.3046   -7.3443    0.4584 N.pl3     1 <0>        -0.7478
     16 C10        -2.2405   -8.7681    0.7975 C.3       1 <0>         0.1948
     17 H2         -1.2946   -9.1824    0.4488 H         1 <0>         0.0901
     18 C11        -2.3423   -8.9360    2.3149 C.3       1 <0>        -0.1519
     19 C12        -3.3821   -9.4944    0.1340 C.ar      1 <0>        -0.0759
     20 C13        -4.6328   -8.9087    0.0749 C.ar      1 <0>        -0.1134
     21 C14        -5.6800   -9.5749   -0.5337 C.ar      1 <0>        -0.1193
     22 C15        -5.4763  -10.8267   -1.0836 C.ar      1 <0>        -0.1301
     23 C16        -4.2254  -11.4121   -1.0253 C.ar      1 <0>        -0.1199
     24 C17        -3.1772  -10.7440   -0.4205 C.ar      1 <0>        -0.1125
     25 C18        -1.9327   -2.6568   -1.2178 C.ar      1 <0>        -0.1046
     26 C19        -3.2642   -3.0261   -1.2516 C.ar      1 <0>        -0.0488
     27 C20        -3.8404   -3.4285   -2.4418 C.ar      1 <0>        -0.1362
     28 C21        -3.0856   -3.4623   -3.5998 C.ar      1 <0>        -0.0934
     29 C22        -1.7544   -3.0932   -3.5685 C.ar      1 <0>        -0.1622
     30 C23        -1.1775   -2.6848   -2.3777 C.ar      1 <0>         0.1195
     31 F1          0.1227   -2.3192   -2.3469 F         1 <0>        -0.1374
     32 C24        -2.2097    0.1378   -0.1785 C.2       1 <0>         0.5358
     33 O2         -2.0481    1.3456   -0.1568 O.2       1 <0>        -0.5504
     34 O3         -3.4404   -0.3755   -0.3983 O.3       1 <0>        -0.3487
     35 C25        -4.5057    0.5559   -0.5971 C.3       1 <0>         0.0822
     36 C26        -4.6288    0.8794   -2.0874 C.3       1 <0>        -0.1660
     37 C27        -5.8168   -0.0546   -0.0978 C.3       1 <0>        -0.1471
     38 H3          1.4563    1.4723    0.2681 H         1 <0>         0.0638
     39 H4          0.0705    1.6554   -0.8339 H         1 <0>         0.0837
     40 H5         -0.1737    1.7513    0.9266 H         1 <0>         0.0878
     41 H6          1.4594   -6.0176    0.6843 H         1 <0>         0.2376
     42 H7         -2.1684   -4.7946   -0.0025 H         1 <0>         0.0896
     43 H8         -3.1550   -6.9384    0.2283 H         1 <0>         0.3833
     44 H9         -3.3223   -8.5990    2.6528 H         1 <0>         0.0470
     45 H10        -2.2102   -9.9865    2.5738 H         1 <0>         0.0519
     46 H11        -1.5670   -8.3422    2.7990 H         1 <0>         0.0664
     47 H12        -4.7919   -7.9307    0.5046 H         1 <0>         0.1198
     48 H13        -6.6573   -9.1176   -0.5792 H         1 <0>         0.1187
     49 H14        -6.2947  -11.3475   -1.5585 H         1 <0>         0.1171
     50 H15        -4.0664  -12.3902   -1.4547 H         1 <0>         0.1191
     51 H16        -2.1990  -11.1997   -0.3782 H         1 <0>         0.1224
     52 H17        -3.8546   -3.0004   -0.3476 H         1 <0>         0.1265
     53 H18        -4.8808   -3.7172   -2.4671 H         1 <0>         0.1224
     54 H19        -3.5367   -3.7777   -4.5291 H         1 <0>         0.1241
     55 H20        -1.1650   -3.1200   -4.4731 H         1 <0>         0.1264
     56 H21        -4.2967    1.4708   -0.0428 H         1 <0>         0.0767
     57 H22        -3.6948    1.3144   -2.4432 H         1 <0>         0.0583
     58 H23        -4.8379   -0.0355   -2.6418 H         1 <0>         0.0617
     59 H24        -5.4414    1.5899   -2.2391 H         1 <0>         0.0641
     60 H25        -5.7291   -0.2851    0.9640 H         1 <0>         0.0608
     61 H26        -6.6294    0.6559   -0.2495 H         1 <0>         0.0696
     62 H27        -6.0259   -0.9695   -0.6521 H         1 <0>         0.0644
@<TRIPOS>BOND
     1    1    2 1
     2    1   38 1
     3    1   39 1
     4    1   40 1
     5    2   11 1
     6    2    3 2
     7    3    4 1
     8    3   32 1
     9    4    5 1
    10    4    6 1
    11    4   25 1
    12    6   10 1
    13    6    7 1
    14    7    8 2
    15    7   12 1
    16    8    9 1
    17    8   41 1
    18    9   10 1
    19   10   11 2
    20   12   13 2
    21   12   42 1
    22   13   14 1
    23   13   15 1
    24   15   16 1
    25   15   43 1
    26   16   17 1
    27   16   18 1
    28   16   19 1
    29   18   44 1
    30   18   45 1
    31   18   46 1
    32   19   24 ar
    33   19   20 ar
    34   20   21 ar
    35   20   47 1
    36   21   22 ar
    37   21   48 1
    38   22   23 ar
    39   22   49 1
    40   23   24 ar
    41   23   50 1
    42   24   51 1
    43   25   30 ar
    44   25   26 ar
    45   26   27 ar
    46   26   52 1
    47   27   28 ar
    48   27   53 1
    49   28   29 ar
    50   28   54 1
    51   29   30 ar
    52   29   55 1
    53   30   31 1
    54   32   33 2
    55   32   34 1
    56   34   35 1
    57   35   36 1
    58   35   37 1
    59   35   56 1
    60   36   57 1
    61   36   58 1
    62   36   59 1
    63   37   60 1
    64   37   61 1
    65   37   62 1
@<TRIPOS>MOLECULE
ZINC43757863
   77    80     0     0     0
SMALL
USER_CHARGES

@<TRIPOS>ATOM
      1 C1          0.3545    1.2286   -0.4770 C.3       1 <0>        -0.1547
      2 C2          0.0490   -0.2285   -0.1240 C.3       1 <0>        -0.1143
      3 H1          0.4726   -0.8833   -0.8855 H         1 <0>         0.1156
      4 C3         -1.4662   -0.4314   -0.0623 C.3       1 <0>        -0.1732
      5 C4         -2.1096    0.1435   -1.3258 C.3       1 <0>        -0.1271
      6 C5         -3.6054   -0.1780   -1.3280 C.3       1 <0>        -0.1120
      7 C6         -4.2488    0.3969   -2.5915 C.3       1 <0>        -0.0971
      8 C7         -3.6803   -0.3133   -3.8217 C.3       1 <0>        -0.1514
      9 C8         -5.7629    0.1848   -2.5345 C.3       1 <0>        -0.1471
     10 C9          0.6642   -0.5635    1.2363 C.3       1 <0>        -0.0684
     11 H2          0.1790    0.0170    2.0209 H         1 <0>         0.0657
     12 C10         2.1789   -0.2743    1.2205 C.3       1 <0>        -0.1224
     13 C11         2.8852   -1.6208    1.4924 C.3       1 <0>        -0.1257
     14 C12         1.8455   -2.6863    1.0345 C.3       1 <0>        -0.0717
     15 H3          2.0301   -3.6638    1.4798 H         1 <0>         0.0741
     16 C13         0.5245   -2.0638    1.5250 C.3       1 <0>        -0.0485
     17 C14        -0.6965   -2.6711    0.8730 C.3       1 <0>        -0.1134
     18 C15        -0.5844   -2.6326   -0.6508 C.3       1 <0>        -0.1888
     19 C16         0.6642   -3.4203   -1.0652 C.3       1 <0>        -0.0660
     20 H4          0.6042   -4.4351   -0.6720 H         1 <0>         0.0586
     21 C17         1.9095   -2.7294   -0.4947 C.3       1 <0>        -0.0765
     22 H5          1.9579   -1.7116   -0.8820 H         1 <0>         0.0780
     23 C18         3.1759   -3.4781   -0.9185 C.3       1 <0>        -0.1123
     24 C19         3.2670   -3.5128   -2.4447 C.3       1 <0>        -0.1167
     25 C20         2.0393   -4.2313   -3.0095 C.3       1 <0>        -0.0742
     26 H6          1.9984   -5.2469   -2.6158 H         1 <0>         0.0567
     27 C21         0.7408   -3.4645   -2.5932 C.3       1 <0>        -0.0420
     28 C22         0.7907   -2.0373   -3.1423 C.3       1 <0>        -0.1082
     29 C23         0.8665   -2.0806   -4.6697 C.3       1 <0>        -0.0920
     30 C24         2.1260   -2.8367   -5.0973 C.3       1 <0>        -0.1469
     31 H7          3.0063   -2.3277   -4.7047 H         1 <0>         0.0545
     32 C25         2.1344   -4.2779   -4.5359 C.3       1 <0>        -0.0864
     33 C26         2.1999   -2.8796   -6.6019 C.2       1 <0>         0.4929
     34 O1          2.2487   -1.8417   -7.2397 O.co2     1 <0>        -0.7067
     35 O2          2.2107   -3.9523   -7.1813 O.co2     1 <0>        -0.7013
     36 C27        -0.4937   -4.1802   -3.1452 C.3       1 <0>        -0.1454
     37 C28         0.4106   -2.2690    3.0369 C.3       1 <0>        -0.1425
     38 H8          1.4340    1.3731   -0.5209 H         1 <0>         0.0539
     39 H9         -0.0837    1.4672   -1.4460 H         1 <0>         0.0582
     40 H10        -0.0690    1.8834    0.2845 H         1 <0>         0.0476
     41 H11        -1.6877   -1.4965    0.0058 H         1 <0>         0.1272
     42 H12        -1.8658    0.0795    0.8137 H         1 <0>         0.0506
     43 H13        -1.9703    1.2244   -1.3449 H         1 <0>         0.0591
     44 H14        -1.6416   -0.2987   -2.2053 H         1 <0>         0.0680
     45 H15        -3.7447   -1.2589   -1.3090 H         1 <0>         0.0602
     46 H16        -4.0734    0.2642   -0.4485 H         1 <0>         0.0555
     47 H17        -4.0334    1.4635   -2.6558 H         1 <0>         0.0657
     48 H18        -4.1386    0.0963   -4.7218 H         1 <0>         0.0509
     49 H19        -2.6016   -0.1622   -3.8623 H         1 <0>         0.0613
     50 H20        -3.8956   -1.3798   -3.7574 H         1 <0>         0.0542
     51 H21        -6.1679    0.6908   -1.6581 H         1 <0>         0.0500
     52 H22        -6.2213    0.5944   -3.4347 H         1 <0>         0.0517
     53 H23        -5.9783   -0.8817   -2.4702 H         1 <0>         0.0530
     54 H24         2.4754    0.1131    0.2457 H         1 <0>         0.0688
     55 H25         2.4305    0.4440    2.0008 H         1 <0>         0.0562
     56 H26         3.7987   -1.6997    0.9030 H         1 <0>         0.0662
     57 H27         3.1033   -1.7309    2.5546 H         1 <0>         0.0586
     58 H28        -0.7976   -3.7066    1.1980 H         1 <0>         0.0527
     59 H29        -1.5809   -2.1130    1.1806 H         1 <0>         0.0752
     60 H30        -1.4693   -3.0883   -1.0949 H         1 <0>         0.0610
     61 H31        -0.4935   -1.5992   -0.9855 H         1 <0>         0.1405
     62 H32         4.0507   -2.9687   -0.5143 H         1 <0>         0.0559
     63 H33         3.1405   -4.4974   -0.5339 H         1 <0>         0.0543
     64 H34         3.3016   -2.4939   -2.8303 H         1 <0>         0.0682
     65 H35         4.1697   -4.0459   -2.7431 H         1 <0>         0.0562
     66 H36        -0.1072   -1.4994   -2.8382 H         1 <0>         0.0544
     67 H37         1.6702   -1.5274   -2.7492 H         1 <0>         0.0589
     68 H38        -0.0136   -2.5894   -5.0629 H         1 <0>         0.0536
     69 H39         0.9030   -1.0637   -5.0606 H         1 <0>         0.0586
     70 H40         3.0320   -4.8230   -4.8277 H         1 <0>         0.0557
     71 H41         1.2559   -4.7814   -4.9395 H         1 <0>         0.0572
     72 H42        -1.3917   -3.6420   -2.8418 H         1 <0>         0.0520
     73 H43        -0.4392   -4.2117   -4.2334 H         1 <0>         0.0655
     74 H44        -0.5297   -5.1968   -2.7536 H         1 <0>         0.0456
     75 H45        -0.4797   -1.7601    3.4065 H         1 <0>         0.0501
     76 H46         0.3367   -3.3345    3.2544 H         1 <0>         0.0505
     77 H47         1.2935   -1.8584    3.5268 H         1 <0>         0.0536
@<TRIPOS>BOND
     1    1    2 1
     2    1   38 1
     3    1   39 1
     4    1   40 1
     5    2    3 1
     6    2    4 1
     7    2   10 1
     8    4    5 1
     9    4   41 1
    10    4   42 1
    11    5    6 1
    12    5   43 1
    13    5   44 1
    14    6    7 1
    15    6   45 1
    16    6   46 1
    17    7    8 1
    18    7    9 1
    19    7   47 1
    20    8   48 1
    21    8   49 1
    22    8   50 1
    23    9   51 1
    24    9   52 1
    25    9   53 1
    26   10   11 1
    27   10   16 1
    28   10   12 1
    29   12   13 1
    30   12   54 1
    31   12   55 1
    32   13   14 1
    33   13   56 1
    34   13   57 1
    35   14   15 1
    36   14   21 1
    37   14   16 1
    38   16   17 1
    39   16   37 1
    40   17   18 1
    41   17   58 1
    42   17   59 1
    43   18   19 1
    44   18   60 1
    45   18   61 1
    46   19   20 1
    47   19   27 1
    48   19   21 1
    49   21   22 1
    50   21   23 1
    51   23   24 1
    52   23   62 1
    53   23   63 1
    54   24   25 1
    55   24   64 1
    56   24   65 1
    57   25   26 1
    58   25   32 1
    59   25   27 1
    60   27   28 1
    61   27   36 1
    62   28   29 1
    63   28   66 1
    64   28   67 1
    65   29   30 1
    66   29   68 1
    67   29   69 1
    68   30   31 1
    69   30   32 1
    70   30   33 1
    71   32   70 1
    72   32   71 1
    73   33   34 2
    74   33   35 1
    75   36   72 1
    76   36   73 1
    77   36   74 1
    78   37   75 1
    79   37   76 1
    80   37   77 1
@<TRIPOS>MOLECULE
ZINC08846538
   70    73     0     0     0
SMALL
USER_CHARGES
2-[1-[2-(5-benzyloxy-2-methyl-1H-indol-3-yl)ethylamino]butylidene]-5,5-dimethyl-cyclohexane-1,3-dione
@<TRIPOS>ATOM
      1 C1         -0.7529    1.5928   -1.2315 C.3       1 <0>        -0.1441
      2 C2         -0.0128    1.0858    0.0080 C.3       1 <0>        -0.1047
      3 C3         -0.7289    1.5792    1.2668 C.3       1 <0>        -0.1100
      4 C4          0.0000    1.0800    2.4877 C.2       1 <0>         0.2809
      5 C5          0.9443    1.8857    3.1105 C.2       1 <0>        -0.5306
      6 C6          1.2805    3.2375    2.6186 C.2       1 <0>         0.4149
      7 O1          1.3612    3.4833    1.4326 O.3       1 <0>        -0.5320
      8 C7          1.5160    4.3005    3.6775 C.3       1 <0>        -0.1505
      9 C8          2.5057    3.7560    4.7110 C.3       1 <0>        -0.0436
     10 C9          1.9322    2.5009    5.3744 C.3       1 <0>        -0.1536
     11 C10         1.6898    1.4507    4.3094 C.2       1 <0>         0.4277
     12 O2          2.0880    0.3109    4.4347 O.2       1 <0>        -0.5051
     13 C11         2.7634    4.8218    5.7781 C.3       1 <0>        -0.1395
     14 C12         3.8223    3.4058    4.0147 C.3       1 <0>        -0.1458
     15 N1         -0.2640   -0.1459    2.9742 N.2       1 <0>        -0.6414
     16 C13        -1.2601   -0.9958    2.3172 C.3       1 <0>         0.0756
     17 C14        -1.3675   -2.3266    3.0644 C.3       1 <0>        -0.0253
     18 C15        -2.3921   -3.2009    2.3885 C.2       1 <0>        -0.1567
     19 C16        -3.7048   -3.2521    2.6648 C.2       1 <0>         0.0736
     20 N2         -4.3192   -4.1589    1.8453 N.pl3     1 <0>        -0.6077
     21 H1         -5.4032   -4.3276    1.9265 H         1 <0>         0.4331
     22 C17        -3.3900   -4.7359    1.0054 C.ar      1 <0>         0.0789
     23 C18        -2.1433   -4.1604    1.3099 C.ar      1 <0>        -0.0598
     24 C19        -1.0019   -4.5570    0.6100 C.ar      1 <0>        -0.0889
     25 C20        -1.1067   -5.5146   -0.3792 C.ar      1 <0>         0.0923
     26 C21        -2.3422   -6.0827   -0.6779 C.ar      1 <0>        -0.1763
     27 C22        -3.4745   -5.6988    0.0056 C.ar      1 <0>        -0.0896
     28 O3          0.0015   -5.9048   -1.0641 O.3       1 <0>        -0.3086
     29 C23        -0.1771   -6.8994   -2.0745 C.3       1 <0>         0.1014
     30 C24         1.1500   -7.2027   -2.7209 C.ar      1 <0>        -0.0928
     31 C25         1.5577   -6.4869   -3.8312 C.ar      1 <0>        -0.0951
     32 C26         2.7772   -6.7615   -4.4210 C.ar      1 <0>        -0.1233
     33 C27         3.5844   -7.7592   -3.9072 C.ar      1 <0>        -0.1125
     34 C28         3.1743   -8.4789   -2.8005 C.ar      1 <0>        -0.1242
     35 C29         1.9571   -8.2004   -2.2073 C.ar      1 <0>        -0.0959
     36 C30        -4.3994   -2.4297    3.7196 C.3       1 <0>        -0.0901
     37 H2         -0.2381    1.2380   -2.1365 H         1 <0>         0.0445
     38 H3         -0.7677    2.6926   -1.2253 H         1 <0>         0.0516
     39 H4         -1.7849    1.2121   -1.2236 H         1 <0>         0.0420
     40 H5          0.0020   -0.0141    0.0019 H         1 <0>         0.0490
     41 H6          1.0192    1.4665    0.0001 H         1 <0>         0.0727
     42 H7         -1.7608    1.1985    1.2747 H         1 <0>         0.0439
     43 H8          1.9296    5.2036    3.2048 H         1 <0>         0.0640
     44 H9          0.5627    4.5471    4.1679 H         1 <0>         0.0806
     45 H10         2.6481    2.1191    6.1172 H         1 <0>         0.0629
     46 H11         0.9842    2.7505    5.8734 H         1 <0>         0.0787
     47 H12         3.4744    4.4320    6.5214 H         1 <0>         0.0523
     48 H13         1.8167    5.0788    6.2758 H         1 <0>         0.0536
     49 H14         3.1844    5.7208    5.3042 H         1 <0>         0.0515
     50 H15         4.5356    3.0142    4.7548 H         1 <0>         0.0513
     51 H16         4.2399    4.3084    3.5448 H         1 <0>         0.0503
     52 H17         3.6378    2.6430    3.2439 H         1 <0>         0.0628
     53 H18        -0.7438    2.6791    1.2729 H         1 <0>         0.0643
     54 H19        -0.9540   -1.1828    1.2774 H         1 <0>         0.0225
     55 H20        -2.2370   -0.4901    2.3265 H         1 <0>         0.0144
     56 H21        -0.3906   -2.8322    3.0551 H         1 <0>         0.0659
     57 H22        -1.6737   -2.1396    4.1043 H         1 <0>         0.0634
     58 H23        -0.1154   -4.1478    0.8262 H         1 <0>         0.1191
     59 H24        -2.4135   -6.7761   -1.3949 H         1 <0>         0.1168
     60 H25        -4.3572   -6.1128   -0.2164 H         1 <0>         0.1097
     61 H26        -0.5814   -7.8157   -1.6196 H         1 <0>         0.0683
     62 H27        -0.8791   -6.5273   -2.8353 H         1 <0>         0.0685
     63 H28         0.9251   -5.7104   -4.2351 H         1 <0>         0.1245
     64 H29         3.0979   -6.1990   -5.2854 H         1 <0>         0.1245
     65 H30         4.5356   -7.9763   -4.3703 H         1 <0>         0.1227
     66 H31         3.8048   -9.2584   -2.3992 H         1 <0>         0.1240
     67 H32         1.6366   -8.7626   -1.3427 H         1 <0>         0.1239
     68 H33        -5.4718   -2.6745    3.7282 H         1 <0>         0.0611
     69 H34        -4.2692   -1.3606    3.4956 H         1 <0>         0.0825
     70 H35        -3.9642   -2.6537    4.7047 H         1 <0>         0.0816
@<TRIPOS>BOND
     1    1    2 1
     2    1   37 1
     3    1   38 1
     4    1   39 1
     5    2   40 1
     6    2   41 1
     7    2    3 1
     8    3    4 1
     9    3   42 1
    10    3   53 1
    11    4    5 1
    12    4   15 2
    13    5   11 1
    14    5    6 2
    15    6    7 1
    16    6    8 1
    17    8    9 1
    18    8   43 1
    19    8   44 1
    20    9   10 1
    21    9   13 1
    22    9   14 1
    23   10   11 1
    24   10   45 1
    25   10   46 1
    26   11   12 2
    27   13   47 1
    28   13   48 1
    29   13   49 1
    30   14   50 1
    31   14   51 1
    32   14   52 1
    33   15   16 1
    34   16   17 1
    35   16   54 1
    36   16   55 1
    37   17   18 1
    38   17   56 1
    39   17   57 1
    40   18   23 1
    41   18   19 2
    42   19   20 1
    43   19   36 1
    44   20   21 1
    45   20   22 1
    46   22   27 ar
    47   22   23 ar
    48   23   24 ar
    49   24   25 ar
    50   24   58 1
    51   25   26 ar
    52   25   28 1
    53   26   27 ar
    54   26   59 1
    55   27   60 1
    56   28   29 1
    57   29   30 1
    58   29   61 1
    59   29   62 1
    60   30   35 ar
    61   30   31 ar
    62   31   32 ar
    63   31   63 1
    64   32   33 ar
    65   32   64 1
    66   33   34 ar
    67   33   65 1
    68   34   35 ar
    69   34   66 1
    70   35   67 1
    71   36   68 1
    72   36   69 1
    73   36   70 1
@<TRIPOS>MOLECULE
ZINC34924033
   59    62     0     0     0
SMALL
USER_CHARGES

@<TRIPOS>ATOM
      1 C1          1.1855   -1.8535   -2.1788 C.3       1 <0>        -0.1492
      2 C2          0.2881   -2.2997   -1.0228 C.3       1 <0>         0.0564
      3 O1         -1.0790   -2.2546   -1.4362 O.3       1 <0>        -0.3508
      4 C3         -2.0131   -2.5249   -0.4977 C.2       1 <0>         0.5628
      5 O2         -1.6794   -2.7006    0.6613 O.2       1 <0>        -0.5076
      6 C4         -3.3641   -2.6033   -0.8568 C.2       1 <0>        -0.3729
      7 C5         -3.8665   -3.7138   -1.5075 C.2       1 <0>         0.2534
      8 N1         -5.1454   -3.7739   -1.8413 N.2       1 <0>        -0.5906
      9 C6         -6.0302   -2.8286   -1.5998 C.2       1 <0>         0.3247
     10 N2         -5.7371   -1.6529   -0.9673 N.pl3     1 <0>        -0.5219
     11 C7         -4.3234   -1.4779   -0.5397 C.3       1 <0>         0.2750
     12 H1         -4.3124   -1.3215    0.5390 H         1 <0>         0.0789
     13 C8         -3.7989   -0.2239   -1.1905 C.ar      1 <0>        -0.1147
     14 C9         -4.2446    0.1414   -2.4468 C.ar      1 <0>        -0.0554
     15 C10        -3.7637    1.2914   -3.0440 C.ar      1 <0>        -0.1249
     16 C11        -2.8363    2.0777   -2.3855 C.ar      1 <0>        -0.0937
     17 C12        -2.3896    1.7148   -1.1293 C.ar      1 <0>        -0.1554
     18 C13        -2.8747    0.5656   -0.5278 C.ar      1 <0>         0.1043
     19 F1         -2.4422    0.2122    0.7023 F         1 <0>        -0.1360
     20 C14        -6.7761   -0.7615   -0.7878 C.2       1 <0>         0.2313
     21 C15        -7.9952   -1.1186   -1.2490 C.2       1 <0>        -0.2959
     22 S1         -7.6703   -2.7276   -1.9420 S.3       1 <0>         0.1319
     23 C16        -6.5640    0.5298   -0.1186 C.2       1 <0>        -0.4544
     24 C17        -7.6160    1.3205    0.1685 C.2       1 <0>         0.4899
     25 O3         -8.8780    0.8722   -0.0415 O.3       1 <0>        -0.6828
     26 N3         -7.4083    2.5917    0.6782 N.pl3     1 <0>        -0.6895
     27 C18        -8.4976    3.3730    1.0720 C.ar      1 <0>         0.2001
     28 C19        -9.6282    2.7707    1.6099 C.ar      1 <0>        -0.1261
     29 C20       -10.7029    3.5461    1.9984 C.ar      1 <0>        -0.0700
     30 C21       -10.6546    4.9205    1.8526 C.ar      1 <0>        -0.1636
     31 C22        -9.5310    5.5232    1.3172 C.ar      1 <0>        -0.0703
     32 C23        -8.4505    4.7545    0.9318 C.ar      1 <0>        -0.1814
     33 C24        -9.4835    7.0212    1.1594 C.3       1 <0>        -0.1071
     34 C25       -11.9299    2.8937    2.5815 C.3       1 <0>        -0.1090
     35 C26        -2.9515   -4.8641   -1.8399 C.3       1 <0>        -0.1061
     36 H2          2.2195   -1.8031   -1.8376 H         1 <0>         0.0740
     37 H3          1.1073   -2.5696   -2.9968 H         1 <0>         0.0640
     38 H4          0.8690   -0.8698   -2.5256 H         1 <0>         0.0652
     39 H5          0.5470   -3.3184   -0.7341 H         1 <0>         0.0618
     40 H6          0.4327   -1.6333   -0.1724 H         1 <0>         0.0635
     41 H7         -4.9687   -0.4722   -2.9622 H         1 <0>         0.1192
     42 H8         -4.1123    1.5759   -4.0258 H         1 <0>         0.1260
     43 H9         -2.4607    2.9757   -2.8534 H         1 <0>         0.1285
     44 H10        -1.6651    2.3289   -0.6153 H         1 <0>         0.1310
     45 H11        -8.9251   -0.5710   -1.2079 H         1 <0>         0.2334
     46 H12        -5.5645    0.8447    0.1429 H         1 <0>         0.0854
     47 H13        -6.5067    2.9394    0.7618 H         1 <0>         0.3958
     48 H14        -9.6667    1.6974    1.7237 H         1 <0>         0.1417
     49 H15       -11.4965    5.5244    2.1573 H         1 <0>         0.1101
     50 H16        -7.5714    5.2262    0.5182 H         1 <0>         0.1126
     51 H17        -9.0696    7.4688    2.0630 H         1 <0>         0.0637
     52 H18        -8.8547    7.2769    0.3065 H         1 <0>         0.0606
     53 H19       -10.4916    7.4013    0.9945 H         1 <0>         0.0612
     54 H20       -11.8634    2.9018    3.6694 H         1 <0>         0.0631
     55 H21       -12.8174    3.4431    2.2676 H         1 <0>         0.0601
     56 H22       -11.9963    1.8643    2.2292 H         1 <0>         0.0666
     57 H23        -3.0050   -5.6115   -1.0482 H         1 <0>         0.0801
     58 H24        -3.2598   -5.3126   -2.7843 H         1 <0>         0.0830
     59 H25        -1.9277   -4.5004   -1.9276 H         1 <0>         0.0704
@<TRIPOS>BOND
     1    1    2 1
     2    1   36 1
     3    1   37 1
     4    1   38 1
     5    2    3 1
     6    2   39 1
     7    2   40 1
     8    3    4 1
     9    4    5 2
    10    4    6 1
    11    6   11 1
    12    6    7 2
    13    7    8 1
    14    7   35 1
    15    8    9 2
    16    9   22 1
    17    9   10 1
    18   10   11 1
    19   10   20 1
    20   11   12 1
    21   11   13 1
    22   13   18 ar
    23   13   14 ar
    24   14   15 ar
    25   14   41 1
    26   15   16 ar
    27   15   42 1
    28   16   17 ar
    29   16   43 1
    30   17   18 ar
    31   17   44 1
    32   18   19 1
    33   20   21 2
    34   20   23 1
    35   21   22 1
    36   21   45 1
    37   23   24 2
    38   23   46 1
    39   24   25 1
    40   24   26 1
    41   26   27 1
    42   26   47 1
    43   27   32 ar
    44   27   28 ar
    45   28   29 ar
    46   28   48 1
    47   29   30 ar
    48   29   34 1
    49   30   31 ar
    50   30   49 1
    51   31   32 ar
    52   31   33 1
    53   32   50 1
    54   33   51 1
    55   33   52 1
    56   33   53 1
    57   34   54 1
    58   34   55 1
    59   34   56 1
    60   35   57 1
    61   35   58 1
    62   35   59 1
@<TRIPOS>MOLECULE
ZINC36053730
   63    66     0     0     0
SMALL
USER_CHARGES

@<TRIPOS>ATOM
      1 C1         -0.2790    1.2322    0.3114 C.3       1 <0>        -0.1044
      2 C2         -0.1516   -0.2667    0.2208 C.2       1 <0>         0.2312
      3 C3         -1.2864   -1.0461    0.1246 C.2       1 <0>        -0.3754
      4 C4         -1.1072   -2.5453    0.0362 C.3       1 <0>         0.2730
      5 H1         -1.5755   -2.8853   -0.8875 H         1 <0>         0.0657
      6 N1          0.2869   -3.0628    0.0601 N.pl3     1 <0>        -0.5236
      7 C5          0.6849   -4.3832   -0.0084 C.2       1 <0>         0.2328
      8 C6          2.0107   -4.6410    0.0290 C.2       1 <0>        -0.3067
      9 S1          2.7012   -3.0039    0.1621 S.3       1 <0>         0.1109
     10 C7          1.2734   -2.1216    0.1606 C.2       1 <0>         0.3243
     11 N2          1.0483   -0.8261    0.2287 N.2       1 <0>        -0.5944
     12 C8         -0.2989   -5.4700   -0.1177 C.2       1 <0>        -0.4662
     13 C9          0.1059   -6.7532   -0.0594 C.2       1 <0>         0.5003
     14 O1          1.4285   -7.0449   -0.0089 O.3       1 <0>        -0.7021
     15 N3         -0.8291   -7.7745   -0.0511 N.pl3     1 <0>        -0.7519
     16 C10        -0.3957   -9.1630    0.1230 C.3       1 <0>         0.1793
     17 C11        -1.5808  -10.0817   -0.0270 C.ar      1 <0>        -0.1021
     18 C12        -2.3393  -10.4169    1.0792 C.ar      1 <0>        -0.0750
     19 C13        -3.4266  -11.2589    0.9427 C.ar      1 <0>        -0.1559
     20 C14        -3.7562  -11.7669   -0.3024 C.ar      1 <0>         0.0924
     21 C15        -2.9959  -11.4305   -1.4096 C.ar      1 <0>        -0.1566
     22 C16        -1.9121  -10.5841   -1.2716 C.ar      1 <0>        -0.0742
     23 F1         -4.8187  -12.5905   -0.4369 F         1 <0>        -0.1440
     24 C17        -1.8531   -3.1703    1.1868 C.ar      1 <0>        -0.0726
     25 C18        -1.3355   -3.0974    2.4666 C.ar      1 <0>        -0.0532
     26 C19        -2.0189   -3.6698    3.5226 C.ar      1 <0>        -0.1494
     27 C20        -3.2224   -4.3166    3.2984 C.ar      1 <0>         0.0927
     28 C21        -3.7399   -4.3890    2.0162 C.ar      1 <0>        -0.1498
     29 C22        -3.0573   -3.8112    0.9625 C.ar      1 <0>        -0.0687
     30 F2         -3.8912   -4.8769    4.3299 F         1 <0>        -0.1476
     31 C23        -2.5642   -0.4670    0.1098 C.2       1 <0>         0.6086
     32 O2         -3.2626   -0.5054    1.1086 O.2       1 <0>        -0.5390
     33 N4         -3.0197    0.1319   -1.0084 N.am      1 <0>        -0.6122
     34 C24        -2.2361    0.0682   -2.2446 C.3       1 <0>         0.0807
     35 C25        -4.2984    0.8465   -0.9877 C.3       1 <0>         0.1302
     36 C26        -4.0687    2.3137   -1.3557 C.3       1 <0>        -0.1607
     37 C27        -5.2544    0.2107   -1.9990 C.3       1 <0>        -0.1585
     38 H2          0.7136    1.6779    0.3756 H         1 <0>         0.0765
     39 H3         -0.7892    1.6077   -0.5756 H         1 <0>         0.0734
     40 H4         -0.8535    1.4950    1.1996 H         1 <0>         0.0725
     41 H5          2.5199   -5.5926   -0.0110 H         1 <0>         0.2347
     42 H6         -1.3463   -5.2394   -0.2447 H         1 <0>         0.0844
     43 H7         -1.7711   -7.5705   -0.1606 H         1 <0>         0.3852
     44 H8          0.3516   -9.4078   -0.6318 H         1 <0>         0.0664
     45 H9          0.0367   -9.2869    1.1159 H         1 <0>         0.0578
     46 H10        -2.0818  -10.0208    2.0503 H         1 <0>         0.1340
     47 H11        -4.0188  -11.5209    1.8071 H         1 <0>         0.1336
     48 H12        -3.2518  -11.8264   -2.3812 H         1 <0>         0.1334
     49 H13        -1.3216  -10.3180   -2.1358 H         1 <0>         0.1343
     50 H14        -0.3965   -2.5932    2.6411 H         1 <0>         0.1143
     51 H15        -1.6141   -3.6130    4.5223 H         1 <0>         0.1277
     52 H16        -4.6784   -4.8935    1.8401 H         1 <0>         0.1280
     53 H17        -3.4629   -3.8637   -0.0370 H         1 <0>         0.1203
     54 H18        -2.5889   -0.7624   -2.8560 H         1 <0>         0.0498
     55 H19        -2.3522    1.0008   -2.7968 H         1 <0>         0.0644
     56 H20        -1.1843   -0.0812   -2.0008 H         1 <0>         0.0771
     57 H21        -4.7324    0.7859    0.0104 H         1 <0>         0.0990
     58 H22        -3.6348    2.3743   -2.3537 H         1 <0>         0.0572
     59 H23        -5.0201    2.8454   -1.3403 H         1 <0>         0.0640
     60 H24        -3.3876    2.7667   -0.6352 H         1 <0>         0.0580
     61 H25        -5.4181   -0.8346   -1.7368 H         1 <0>         0.0575
     62 H26        -6.2058    0.7424   -1.9835 H         1 <0>         0.0629
     63 H27        -4.8205    0.2713   -2.9970 H         1 <0>         0.0560
@<TRIPOS>BOND
     1    1    2 1
     2    1   38 1
     3    1   39 1
     4    1   40 1
     5    2   11 1
     6    2    3 2
     7    3    4 1
     8    3   31 1
     9    4    5 1
    10    4    6 1
    11    4   24 1
    12    6   10 1
    13    6    7 1
    14    7    8 2
    15    7   12 1
    16    8    9 1
    17    8   41 1
    18    9   10 1
    19   10   11 2
    20   12   13 2
    21   12   42 1
    22   13   14 1
    23   13   15 1
    24   15   16 1
    25   15   43 1
    26   16   17 1
    27   16   44 1
    28   16   45 1
    29   17   22 ar
    30   17   18 ar
    31   18   19 ar
    32   18   46 1
    33   19   20 ar
    34   19   47 1
    35   20   21 ar
    36   20   23 1
    37   21   22 ar
    38   21   48 1
    39   22   49 1
    40   24   29 ar
    41   24   25 ar
    42   25   26 ar
    43   25   50 1
    44   26   27 ar
    45   26   51 1
    46   27   28 ar
    47   27   30 1
    48   28   29 ar
    49   28   52 1
    50   29   53 1
    51   31   32 2
    52   31   33 am
    53   33   34 1
    54   33   35 1
    55   34   54 1
    56   34   55 1
    57   34   56 1
    58   35   36 1
    59   35   37 1
    60   35   57 1
    61   36   58 1
    62   36   59 1
    63   36   60 1
    64   37   61 1
    65   37   62 1
    66   37   63 1
@<TRIPOS>MOLECULE
ZINC40030379
   71    74     0     0     0
SMALL
USER_CHARGES

@<TRIPOS>ATOM
      1 C1         -1.0004    2.9576   -0.4521 C.3       1 <0>        -0.1735
      2 C2         -0.9818    1.4690   -0.8054 C.3       1 <0>         0.1237
      3 N1         -2.3185    0.9033   -0.6070 N.pl3     1 <0>        -0.6325
      4 C3         -3.2842    0.9017   -1.7086 C.3       1 <0>         0.1209
      5 C4         -3.1364   -0.3904   -2.5145 C.3       1 <0>        -0.1708
      6 C5         -2.6723    0.3654    0.6326 C.ar      1 <0>         0.2073
      7 C6         -1.7598    0.3713    1.6799 C.ar      1 <0>        -0.1970
      8 C7         -2.1130   -0.1610    2.9044 C.ar      1 <0>        -0.0686
      9 C8         -3.3732   -0.6998    3.0883 C.ar      1 <0>        -0.1249
     10 C9         -4.2840   -0.7072    2.0477 C.ar      1 <0>        -0.0432
     11 C10        -3.9393   -0.1715    0.8224 C.ar      1 <0>        -0.1946
     12 C11        -3.7547   -1.2806    4.4255 C.3       1 <0>         0.2688
     13 H1         -2.8628   -1.4479    5.0292 H         1 <0>         0.0662
     14 C12        -4.7019   -0.3491    5.1452 C.2       1 <0>        -0.4963
     15 C13        -5.8526   -1.0353    5.3390 C.2       1 <0>         0.2623
     16 C14        -5.7086   -2.3938    4.7741 C.2       1 <0>         0.5117
     17 O1         -6.5699   -3.2505    4.7901 O.2       1 <0>        -0.5370
     18 N2         -4.4817   -2.5418    4.2390 N.am      1 <0>        -0.6087
     19 C15        -3.9639   -3.7467    3.5861 C.3       1 <0>         0.1627
     20 C16        -3.2972   -4.6267    4.6119 C.2       1 <0>        -0.1659
     21 C17        -3.6735   -5.8740    4.7488 C.2       1 <0>        -0.1822
     22 O2         -6.9583   -0.5544    5.9522 O.3       1 <0>        -0.6557
     23 C18        -4.4276    1.0313    5.5550 C.2       1 <0>         0.5030
     24 O3         -5.0652    1.9476    5.0712 O.2       1 <0>        -0.4697
     25 C19        -3.3759    1.3101    6.5564 C.ar      1 <0>        -0.0947
     26 C20        -2.7192    0.2558    7.1954 C.ar      1 <0>        -0.1002
     27 C21        -1.7384    0.5197    8.1286 C.ar      1 <0>        -0.0985
     28 C22        -1.4022    1.8261    8.4345 C.ar      1 <0>        -0.1964
     29 C23        -2.0497    2.8808    7.8049 C.ar      1 <0>         0.1099
     30 C24        -3.0318    2.6275    6.8623 C.ar      1 <0>        -0.1046
     31 O4         -1.7153    4.1623    8.1099 O.3       1 <0>        -0.3096
     32 C25        -0.6895    4.3501    9.0869 C.3       1 <0>         0.1025
     33 C26        -0.4563    5.8246    9.2932 C.ar      1 <0>        -0.0985
     34 C27         0.4732    6.4925    8.5180 C.ar      1 <0>        -0.0905
     35 C28         0.6871    7.8450    8.7073 C.ar      1 <0>        -0.1253
     36 C29        -0.0287    8.5297    9.6715 C.ar      1 <0>        -0.0796
     37 C30        -0.9588    7.8620   10.4460 C.ar      1 <0>        -0.1248
     38 C31        -1.1758    6.5104   10.2539 C.ar      1 <0>        -0.0901
     39 C32         0.2053   10.0040    9.8785 C.3       1 <0>        -0.1160
     40 H2         -0.0059    3.3785   -0.5997 H         1 <0>         0.0592
     41 H3         -1.7129    3.4747   -1.0948 H         1 <0>         0.0534
     42 H4         -1.2958    3.0800    0.5900 H         1 <0>         0.0611
     43 H5         -0.6865    1.3466   -1.8474 H         1 <0>         0.0666
     44 H6         -0.2693    0.9519   -0.1626 H         1 <0>         0.0731
     45 H7         -4.2950    0.9651   -1.3058 H         1 <0>         0.0749
     46 H8         -3.0971    1.7577   -2.3570 H         1 <0>         0.0673
     47 H9         -2.1255   -0.4538   -2.9173 H         1 <0>         0.0523
     48 H10        -3.3235   -1.2464   -1.8662 H         1 <0>         0.0594
     49 H11        -3.8549   -0.3916   -3.3342 H         1 <0>         0.0598
     50 H12        -0.7752    0.7913    1.5368 H         1 <0>         0.1153
     51 H13        -1.4041   -0.1567    3.7191 H         1 <0>         0.1161
     52 H14        -5.2674   -1.1288    2.1947 H         1 <0>         0.1143
     53 H15        -4.6526   -0.1735    0.0115 H         1 <0>         0.1155
     54 H16        -4.7865   -4.2899    3.1210 H         1 <0>         0.0792
     55 H17        -3.2384   -3.4636    2.8236 H         1 <0>         0.0835
     56 H18        -2.5090   -4.2291    5.2340 H         1 <0>         0.1090
     57 H19        -4.4617   -6.2716    4.1266 H         1 <0>         0.0961
     58 H20        -3.1957   -6.5046    5.4839 H         1 <0>         0.0952
     59 H21        -2.9795   -0.7654    6.9592 H         1 <0>         0.1361
     60 H22        -1.2316   -0.2962    8.6224 H         1 <0>         0.1246
     61 H23        -0.6334    2.0266    9.1661 H         1 <0>         0.1233
     62 H24        -3.5328    3.4470    6.3684 H         1 <0>         0.1358
     63 H25        -0.9971    3.8956   10.0287 H         1 <0>         0.0692
     64 H26         0.2318    3.8814    8.7411 H         1 <0>         0.0690
     65 H27         1.0325    5.9575    7.7647 H         1 <0>         0.1246
     66 H28         1.4138    8.3666    8.1021 H         1 <0>         0.1235
     67 H29        -1.5178    8.3969   11.1996 H         1 <0>         0.1238
     68 H30        -1.9051    5.9895   10.8565 H         1 <0>         0.1251
     69 H31        -0.4673   10.5723    9.2360 H         1 <0>         0.0717
     70 H32         0.0142   10.2594   10.9208 H         1 <0>         0.0663
     71 H33         1.2381   10.2466    9.6284 H         1 <0>         0.0662
@<TRIPOS>BOND
     1    1    2 1
     2    1   40 1
     3    1   41 1
     4    1   42 1
     5    2    3 1
     6    2   43 1
     7    2   44 1
     8    3    4 1
     9    3    6 1
    10    4    5 1
    11    4   45 1
    12    4   46 1
    13    5   47 1
    14    5   48 1
    15    5   49 1
    16    6   11 ar
    17    6    7 ar
    18    7    8 ar
    19    7   50 1
    20    8    9 ar
    21    8   51 1
    22    9   10 ar
    23    9   12 1
    24   10   11 ar
    25   10   52 1
    26   11   53 1
    27   12   13 1
    28   12   18 1
    29   12   14 1
    30   14   15 2
    31   14   23 1
    32   15   16 1
    33   15   22 1
    34   16   17 2
    35   16   18 am
    36   18   19 1
    37   19   20 1
    38   19   54 1
    39   19   55 1
    40   20   21 2
    41   20   56 1
    42   21   57 1
    43   21   58 1
    44   23   24 2
    45   23   25 1
    46   25   30 ar
    47   25   26 ar
    48   26   27 ar
    49   26   59 1
    50   27   28 ar
    51   27   60 1
    52   28   29 ar
    53   28   61 1
    54   29   30 ar
    55   29   31 1
    56   30   62 1
    57   31   32 1
    58   32   33 1
    59   32   63 1
    60   32   64 1
    61   33   38 ar
    62   33   34 ar
    63   34   35 ar
    64   34   65 1
    65   35   36 ar
    66   35   66 1
    67   36   37 ar
    68   36   39 1
    69   37   38 ar
    70   37   67 1
    71   38   68 1
    72   39   69 1
    73   39   70 1
    74   39   71 1
@<TRIPOS>MOLECULE
ZINC40927275
   60    62     0     0     0
SMALL
USER_CHARGES

@<TRIPOS>ATOM
      1 C1         -0.8320    1.4873   -0.3676 C.3       1 <0>        -0.1513
      2 C2         -0.7109   -0.0374   -0.3305 C.3       1 <0>        -0.1227
      3 C3         -0.2251   -0.5437   -1.6901 C.3       1 <0>        -0.1185
      4 C4         -0.1041   -2.0685   -1.6530 C.3       1 <0>         0.0585
      5 O1          0.3496   -2.5414   -2.9228 O.3       1 <0>        -0.3197
      6 C5          0.5112   -3.8839   -3.0595 C.ar      1 <0>         0.1167
      7 C6          0.2323   -4.7272   -1.9928 C.ar      1 <0>        -0.2109
      8 C7          0.3953   -6.0901   -2.1283 C.ar      1 <0>        -0.0509
      9 C8          0.8402   -6.6204   -3.3382 C.ar      1 <0>        -0.0374
     10 C9          1.1190   -5.7710   -4.4077 C.ar      1 <0>        -0.0721
     11 C10         0.9493   -4.4093   -4.2673 C.ar      1 <0>        -0.1543
     12 C11         1.0170   -8.0857   -3.4872 C.2       1 <0>         0.1275
     13 C12         1.4586   -8.6107   -4.6721 C.2       1 <0>        -0.3082
     14 S1          1.4779  -10.3546   -4.2778 S.3       1 <0>        -0.0515
     15 C13         0.9018  -10.2091   -2.5920 C.2       1 <0>         0.4115
     16 N1          0.7548   -8.8947   -2.4756 N.2       1 <0>        -0.5714
     17 N2          0.6790  -11.1831   -1.6732 N.2       1 <0>        -0.5795
     18 C14         0.8930  -12.4429   -1.9852 C.2       1 <0>         0.4571
     19 O2          1.3349  -12.7678   -3.2214 O.3       1 <0>        -0.6605
     20 C15         0.6519  -13.4972   -0.9907 C.2       1 <0>        -0.0262
     21 C16         0.8761  -14.8172   -1.3176 C.2       1 <0>         0.0111
     22 C17         0.4792  -15.8789   -0.3900 C.ar      1 <0>        -0.0750
     23 C18        -0.6710  -15.7310    0.3981 C.ar      1 <0>        -0.0885
     24 C19        -1.0408  -16.7310    1.2688 C.ar      1 <0>        -0.1724
     25 C20        -0.2774  -17.8873    1.3698 C.ar      1 <0>         0.1125
     26 C21         0.8688  -18.0428    0.5898 C.ar      1 <0>         0.0945
     27 C22         1.2450  -17.0493   -0.2912 C.ar      1 <0>        -0.1450
     28 O3          1.6126  -19.1766    0.6932 O.3       1 <0>        -0.3076
     29 C23         2.7733  -19.2689   -0.1351 C.3       1 <0>         0.0240
     30 O4         -0.6478  -18.8696    2.2311 O.3       1 <0>        -0.3038
     31 C24        -1.8314  -18.6458    2.9999 C.3       1 <0>         0.0507
     32 C25        -2.0868  -19.8521    3.9058 C.3       1 <0>        -0.1504
     33 C26         0.1839  -13.1533    0.3182 C.1       1 <0>         0.2751
     34 N3         -0.1873  -12.8804    1.3566 N.1       1 <0>        -0.4300
     35 H1          0.1415    1.9237   -0.5912 H         1 <0>         0.0551
     36 H2         -1.5456    1.7764   -1.1391 H         1 <0>         0.0551
     37 H3         -1.1780    1.8480    0.6010 H         1 <0>         0.0557
     38 H4          0.0028   -0.3266    0.4410 H         1 <0>         0.0649
     39 H5         -1.6844   -0.4739   -0.1069 H         1 <0>         0.0649
     40 H6         -0.9388   -0.2546   -2.4616 H         1 <0>         0.0723
     41 H7          0.7483   -0.1073   -1.9137 H         1 <0>         0.0723
     42 H8          0.6096   -2.3576   -0.8815 H         1 <0>         0.0605
     43 H9         -1.0775   -2.5049   -1.4294 H         1 <0>         0.0605
     44 H10        -0.1123   -4.3157   -1.0556 H         1 <0>         0.1234
     45 H11         0.1788   -6.7456   -1.2977 H         1 <0>         0.1366
     46 H12         1.4641   -6.1788   -5.3462 H         1 <0>         0.1302
     47 H13         1.1616   -3.7510   -5.0967 H         1 <0>         0.1272
     48 H14         1.7223   -8.1095   -5.5917 H         1 <0>         0.1684
     49 H15         1.3444  -15.0686   -2.2577 H         1 <0>         0.1621
     50 H16        -1.2661  -14.8330    0.3223 H         1 <0>         0.1314
     51 H17        -1.9269  -16.6162    1.8754 H         1 <0>         0.1370
     52 H18         2.1292  -17.1709   -0.8992 H         1 <0>         0.1442
     53 H19         3.2739  -20.2202    0.0455 H         1 <0>         0.0989
     54 H20         2.4781  -19.2068   -1.1826 H         1 <0>         0.0570
     55 H21         3.4534  -18.4501    0.0998 H         1 <0>         0.0565
     56 H22        -1.7040  -17.7527    3.6116 H         1 <0>         0.0626
     57 H23        -2.6798  -18.5090    2.3294 H         1 <0>         0.0625
     58 H24        -2.2143  -20.7453    3.2942 H         1 <0>         0.0658
     59 H25        -1.2384  -19.9890    4.5764 H         1 <0>         0.0658
     60 H26        -2.9896  -19.6814    4.4922 H         1 <0>         0.0771
@<TRIPOS>BOND
     1    1    2 1
     2    1   35 1
     3    1   36 1
     4    1   37 1
     5    2    3 1
     6    2   38 1
     7    2   39 1
     8    3    4 1
     9    3   40 1
    10    3   41 1
    11    4    5 1
    12    4   42 1
    13    4   43 1
    14    5    6 1
    15    6   11 ar
    16    6    7 ar
    17    7    8 ar
    18    7   44 1
    19    8    9 ar
    20    8   45 1
    21    9   10 ar
    22    9   12 1
    23   10   11 ar
    24   10   46 1
    25   11   47 1
    26   12   16 1
    27   12   13 2
    28   13   14 1
    29   13   48 1
    30   14   15 1
    31   15   16 2
    32   15   17 1
    33   17   18 2
    34   18   19 1
    35   18   20 1
    36   20   21 2
    37   20   33 1
    38   21   22 1
    39   21   49 1
    40   22   27 ar
    41   22   23 ar
    42   23   24 ar
    43   23   50 1
    44   24   25 ar
    45   24   51 1
    46   25   26 ar
    47   25   30 1
    48   26   27 ar
    49   26   28 1
    50   27   52 1
    51   28   29 1
    52   29   53 1
    53   29   54 1
    54   29   55 1
    55   30   31 1
    56   31   32 1
    57   31   56 1
    58   31   57 1
    59   32   58 1
    60   32   59 1
    61   32   60 1
    62   33   34 3
@<TRIPOS>MOLECULE
ZINC05198020
   55    57     0     0     0
SMALL
USER_CHARGES
6-[[3-cyano-6-(1,1-dimethylpropyl)-4,5,6,7-tetrahydrobenzothiophen-2-yl]carbamoyl]cyclohex-3-ene-1-carboxylic acid
@<TRIPOS>ATOM
      1 C1          4.8934    4.3821   -0.6656 C.3       1 <0>        -0.1558
      2 C2          3.6330    3.5606   -0.9443 C.3       1 <0>        -0.1178
      3 C3          3.6680    2.2757   -0.1145 C.3       1 <0>        -0.0571
      4 C4          3.7272    2.6303    1.3726 C.3       1 <0>        -0.1498
      5 C5          4.9041    1.4575   -0.4933 C.3       1 <0>        -0.1456
      6 C6          2.4077    1.4542   -0.3931 C.3       1 <0>        -0.0707
      7 H1          2.3587    1.2046   -1.4530 H         1 <0>         0.0763
      8 C7          2.4400    0.1672    0.4362 C.3       1 <0>        -0.1148
      9 C8          1.3188   -0.7707   -0.0144 C.3       1 <0>        -0.0586
     10 C9          0.0021   -0.0041    0.0020 C.2       1 <0>        -0.0575
     11 C10        -0.0163    1.3473    0.0094 C.2       1 <0>        -0.2281
     12 S1         -1.7339    1.7757    0.0204 S.3       1 <0>         0.2677
     13 C11        -2.4189    0.1842    0.0253 C.2       1 <0>         0.1223
     14 C12        -1.3037   -0.6400    0.0103 C.2       1 <0>        -0.1660
     15 C13        -1.4347   -2.0660    0.0036 C.1       1 <0>         0.2818
     16 N1         -1.5387   -3.1972   -0.0017 N.1       1 <0>        -0.4478
     17 N2         -3.7588   -0.1780    0.0363 N.am      1 <0>        -0.6290
     18 C14        -4.7138    0.7730    0.0505 C.2       1 <0>         0.5216
     19 O1         -4.4024    1.9452    0.0537 O.2       1 <0>        -0.4454
     20 C15        -6.1685    0.3798    0.0623 C.3       1 <0>        -0.0767
     21 H2         -6.3986   -0.2003   -0.8314 H         1 <0>         0.1020
     22 C16        -6.4651   -0.4567    1.3089 C.3       1 <0>        -0.0827
     23 C17        -7.9465   -0.6310    1.4740 C.2       1 <0>        -0.1705
     24 C18        -8.8335    0.1011    0.8800 C.2       1 <0>        -0.1370
     25 C19        -8.5047    1.2201   -0.0642 C.3       1 <0>        -0.0736
     26 C20        -7.0428    1.6395    0.1040 C.3       1 <0>        -0.1117
     27 H3         -6.9144    2.1431    1.0621 H         1 <0>         0.0772
     28 C21        -6.6493    2.5665   -1.0171 C.2       1 <0>         0.4782
     29 O2         -5.7609    2.2554   -1.7745 O.co2     1 <0>        -0.6290
     30 C22         1.1659    2.2665    0.0031 C.3       1 <0>        -0.0305
     31 H4          4.9355    4.6348    0.3938 H         1 <0>         0.0561
     32 H5          5.7740    3.7992   -0.9355 H         1 <0>         0.0544
     33 H6          4.8684    5.2976   -1.2568 H         1 <0>         0.0503
     34 H7          3.5909    3.3080   -2.0037 H         1 <0>         0.0618
     35 H8          2.7524    4.1435   -0.6744 H         1 <0>         0.0665
     36 H9          3.7521    1.7149    1.9638 H         1 <0>         0.0567
     37 H10         4.6251    3.2156    1.5711 H         1 <0>         0.0555
     38 H11         2.8465    3.2132    1.6425 H         1 <0>         0.0601
     39 H12         4.8620    1.2048   -1.5527 H         1 <0>         0.0537
     40 H13         5.8020    2.0427   -0.2948 H         1 <0>         0.0563
     41 H14         4.9291    0.5420    0.0979 H         1 <0>         0.0574
     42 H15         2.3058    0.4120    1.4899 H         1 <0>         0.0686
     43 H16         3.4021   -0.3264    0.2989 H         1 <0>         0.0711
     44 H17         1.2561   -1.6191    0.6670 H         1 <0>         0.0702
     45 H18         1.5227   -1.1251   -1.0248 H         1 <0>         0.0752
     46 H19        -4.0078   -1.1154    0.0337 H         1 <0>         0.4144
     47 H20        -5.9953   -1.4350    1.2078 H         1 <0>         0.0694
     48 H21        -6.0606    0.0472    2.1868 H         1 <0>         0.0758
     49 H22        -8.2941   -1.4162    2.1289 H         1 <0>         0.1030
     50 H23        -9.8751   -0.1062    1.0764 H         1 <0>         0.1022
     51 H24        -8.6693    0.8881   -1.0893 H         1 <0>         0.0724
     52 H25        -9.1499    2.0728    0.1474 H         1 <0>         0.0830
     53 H26         1.0053    3.0663   -0.7198 H         1 <0>         0.0805
     54 H27         1.3058    2.6918    0.9969 H         1 <0>         0.0852
     55 O3         -7.2859    3.7377   -1.1742 O.co2     1 <0>        -0.7716
@<TRIPOS>BOND
     1    1    2 1
     2    1   31 1
     3    1   32 1
     4    1   33 1
     5    2    3 1
     6    2   34 1
     7    2   35 1
     8    3    4 1
     9    3    5 1
    10    3    6 1
    11    4   36 1
    12    4   37 1
    13    4   38 1
    14    5   39 1
    15    5   40 1
    16    5   41 1
    17    6    7 1
    18    6   30 1
    19    6    8 1
    20    8    9 1
    21    8   42 1
    22    8   43 1
    23    9   10 1
    24    9   44 1
    25    9   45 1
    26   10   14 1
    27   10   11 2
    28   11   12 1
    29   11   30 1
    30   12   13 1
    31   13   14 2
    32   13   17 1
    33   14   15 1
    34   15   16 3
    35   17   18 am
    36   17   46 1
    37   18   19 2
    38   18   20 1
    39   20   21 1
    40   20   26 1
    41   20   22 1
    42   22   23 1
    43   22   47 1
    44   22   48 1
    45   23   24 2
    46   23   49 1
    47   24   25 1
    48   24   50 1
    49   25   26 1
    50   25   51 1
    51   25   52 1
    52   26   27 1
    53   26   28 1
    54   28   29 2
    55   28   55 1
    56   30   53 1
    57   30   54 1
@<TRIPOS>MOLECULE
ZINC13401923
   39    40     0     0     0
SMALL
USER_CHARGES
(E)-3-[4-[[2-[(3,4-dichlorophenyl)methylsulfanyl]acetyl]amino]phenyl]prop-2-enoic acid
@<TRIPOS>ATOM
      1 C1         -3.5633    1.5787    0.6978 C.ar      1 <0>        -0.0982
      2 C2         -2.3222    0.9842    0.6970 C.ar      1 <0>        -0.1389
      3 C3         -1.2673    1.5717    0.0049 C.ar      1 <0>         0.1195
      4 C4         -1.4607    2.7649   -0.6848 C.ar      1 <0>        -0.1129
      5 C5         -2.6996    3.3638   -0.6940 C.ar      1 <0>        -0.1013
      6 C6         -3.7638    2.7764    0.0009 C.ar      1 <0>        -0.0434
      7 C7         -5.0871    3.4152   -0.0009 C.2       1 <0>        -0.1160
      8 C8         -5.2784    4.5709   -0.6740 C.2       1 <0>        -0.1402
      9 C9         -6.5552    5.1873   -0.6757 C.2       1 <0>         0.4689
     10 O1         -7.4784    4.6756   -0.0711 O.co2     1 <0>        -0.6376
     11 N1         -0.0111    0.9658    0.0074 N.am      1 <0>        -0.6644
     12 C10         1.1029    1.7244    0.0105 C.2       1 <0>         0.5259
     13 O2          1.0148    2.9315   -0.0673 O.2       1 <0>        -0.4937
     14 C11         2.4580    1.0727    0.1107 C.3       1 <0>        -0.1333
     15 S1          3.7462    2.3497    0.0899 S.3       1 <0>        -0.1569
     16 C12         5.2946    1.4132    0.2162 C.3       1 <0>        -0.0719
     17 C13         6.4609    2.3676    0.2097 C.ar      1 <0>        -0.0549
     18 C14         7.0523    2.7277   -0.9871 C.ar      1 <0>        -0.0837
     19 C15         8.1183    3.6073   -0.9949 C.ar      1 <0>        -0.0971
     20 C16         8.6014    4.1192    0.1961 C.ar      1 <0>        -0.0272
     21 C17         8.0128    3.7543    1.3949 C.ar      1 <0>        -0.0305
     22 C18         6.9422    2.8781    1.4004 C.ar      1 <0>        -0.0805
     23 Cl1         8.6174    4.3962    2.8902 Cl        1 <0>        -0.0446
     24 Cl2         9.9446    5.2190    0.1874 Cl        1 <0>        -0.0465
     25 H1         -4.3812    1.1222    1.2354 H         1 <0>         0.1294
     26 H2         -2.1666    0.0602    1.2339 H         1 <0>         0.1226
     27 H3         -0.6381    3.2196   -1.2168 H         1 <0>         0.1371
     28 H4         -2.8497    4.2878   -1.2325 H         1 <0>         0.1323
     29 H5         -5.9068    2.9609    0.5359 H         1 <0>         0.1290
     30 H6         -4.4587    5.0252   -1.2108 H         1 <0>         0.1071
     31 H7          0.0608   -0.0015    0.0027 H         1 <0>         0.4091
     32 H8          2.5216    0.5077    1.0407 H         1 <0>         0.1141
     33 H9          2.6006    0.3990   -0.7342 H         1 <0>         0.1138
     34 H10         5.2986    0.8410    1.1439 H         1 <0>         0.0964
     35 H11         5.3776    0.7324   -0.6310 H         1 <0>         0.0977
     36 H12         6.6785    2.3245   -1.9167 H         1 <0>         0.1429
     37 H13         8.5772    3.8913   -1.9304 H         1 <0>         0.1464
     38 H14         6.4828    2.5927    2.3352 H         1 <0>         0.1459
     39 O3         -6.7462    6.3415   -1.3480 O.co2     1 <0>        -0.7644
@<TRIPOS>BOND
     1    1    6 ar
     2    1    2 ar
     3    1   25 1
     4    2    3 ar
     5    2   26 1
     6    3    4 ar
     7    3   11 1
     8    4    5 ar
     9    4   27 1
    10    5    6 ar
    11    5   28 1
    12    6    7 1
    13    7    8 2
    14    7   29 1
    15    8    9 1
    16    8   30 1
    17    9   10 2
    18    9   39 1
    19   11   12 am
    20   11   31 1
    21   12   13 2
    22   12   14 1
    23   14   15 1
    24   14   32 1
    25   14   33 1
    26   15   16 1
    27   16   17 1
    28   16   34 1
    29   16   35 1
    30   17   22 ar
    31   17   18 ar
    32   18   19 ar
    33   18   36 1
    34   19   20 ar
    35   19   37 1
    36   20   21 ar
    37   20   24 1
    38   21   22 ar
    39   21   23 1
    40   22   38 1
@<TRIPOS>MOLECULE
ZINC37117763
   39    40     0     0     0
SMALL
USER_CHARGES

@<TRIPOS>ATOM
      1 C1         -0.1331    0.8874    0.0904 C.3       1 <0>        -0.1154
      2 C2          0.0774   -0.6041    0.1364 C.ar      1 <0>        -0.1142
      3 C3          0.0123   -1.3477   -1.0258 C.ar      1 <0>        -0.1050
      4 C4          0.2054   -2.7162   -0.9844 C.ar      1 <0>        -0.1338
      5 C5          0.4646   -3.3448    0.2199 C.ar      1 <0>        -0.1067
      6 C6          0.5314   -2.6070    1.3853 C.ar      1 <0>        -0.1182
      7 C7          0.3427   -1.2315    1.3464 C.ar      1 <0>         0.1476
      8 N1          0.4150   -0.4803    2.5247 N.am      1 <0>        -0.6716
      9 C8         -0.0035   -1.0126    3.6900 C.2       1 <0>         0.5357
     10 O1         -0.3754   -2.1663    3.7308 O.2       1 <0>        -0.4927
     11 C9         -0.0093   -0.1743    4.9423 C.3       1 <0>        -0.1761
     12 S1         -0.6210   -1.1672    6.3317 S.3       1 <0>        -0.0003
     13 C10        -0.5680   -0.0609    7.7021 C.2       1 <0>        -0.1509
     14 C11        -0.1306    1.2111    7.5301 C.2       1 <0>        -0.1528
     15 C12         0.1837    2.0446    8.6994 C.ar      1 <0>         0.0154
     16 C13         0.9237    1.5147    9.7623 C.ar      1 <0>        -0.0225
     17 C14         1.2148    2.3027   10.8550 C.ar      1 <0>        -0.1034
     18 C15         0.7769    3.6160   10.9028 C.ar      1 <0>        -0.0928
     19 C16         0.0438    4.1477    9.8545 C.ar      1 <0>        -0.1052
     20 C17        -0.2507    3.3738    8.7526 C.ar      1 <0>        -0.1173
     21 Br1         1.1812    4.6884   12.4069 Br        1 <0>        -0.0805
     22 C18        -0.9968   -0.5157    9.0285 C.2       1 <0>         0.5293
     23 O2         -1.0896    0.2853    9.9500 O.co2     1 <0>        -0.6518
     24 O3         -1.2621   -1.6964    9.2147 O.co2     1 <0>        -0.6683
     25 H1          0.8236    1.3846   -0.0703 H         1 <0>         0.0704
     26 H2         -0.8120    1.1335   -0.7261 H         1 <0>         0.0706
     27 H3         -0.5630    1.2230    1.0341 H         1 <0>         0.0644
     28 H4         -0.1899   -0.8598   -1.9678 H         1 <0>         0.1238
     29 H5          0.1533   -3.2955   -1.8944 H         1 <0>         0.1215
     30 H6          0.6145   -4.4140    0.2490 H         1 <0>         0.1249
     31 H7          0.7335   -3.0985    2.3255 H         1 <0>         0.1427
     32 H8          0.7664    0.4236    2.5028 H         1 <0>         0.4111
     33 H9          1.0039    0.1655    5.1568 H         1 <0>         0.1157
     34 H10        -0.6592    0.6889    4.7986 H         1 <0>         0.1137
     35 H11        -0.0132    1.6117    6.5341 H         1 <0>         0.1099
     36 H12         1.2656    0.4909    9.7266 H         1 <0>         0.1205
     37 H13         1.7856    1.8951   11.6763 H         1 <0>         0.1220
     38 H14        -0.2942    5.1725    9.8989 H         1 <0>         0.1208
     39 H15        -0.8188    3.7909    7.9343 H         1 <0>         0.1199
@<TRIPOS>BOND
     1    1    2 1
     2    1   25 1
     3    1   26 1
     4    1   27 1
     5    2    7 ar
     6    2    3 ar
     7    3    4 ar
     8    3   28 1
     9    4    5 ar
    10    4   29 1
    11    5    6 ar
    12    5   30 1
    13    6    7 ar
    14    6   31 1
    15    7    8 1
    16    8    9 am
    17    8   32 1
    18    9   10 2
    19    9   11 1
    20   11   12 1
    21   11   33 1
    22   11   34 1
    23   12   13 1
    24   13   14 2
    25   13   22 1
    26   14   15 1
    27   14   35 1
    28   15   20 ar
    29   15   16 ar
    30   16   17 ar
    31   16   36 1
    32   17   18 ar
    33   17   37 1
    34   18   19 ar
    35   18   21 1
    36   19   20 ar
    37   19   38 1
    38   20   39 1
    39   22   23 2
    40   22   24 1
@<TRIPOS>MOLECULE
ZINC39898415
   47    50     0     0     0
SMALL
USER_CHARGES

@<TRIPOS>ATOM
      1 C1         -0.0187    1.5258    0.0104 C.3       1 <0>        -0.1466
      2 C2          0.0021   -0.0041    0.0020 C.3       1 <0>        -0.1459
      3 C3          0.7182   -0.4975   -1.2568 C.3       1 <0>         0.1411
      4 N1          0.7381   -1.9623   -1.2648 N.am      1 <0>        -0.6004
      5 C4          1.7869   -2.8038   -0.6770 C.3       1 <0>         0.2635
      6 H1          1.8577   -2.6193    0.3950 H         1 <0>         0.1078
      7 C5          1.3773   -4.2291   -0.9298 C.2       1 <0>        -0.1983
      8 C6          1.6637   -5.5487   -0.7833 C.2       1 <0>         0.1850
      9 N2          0.6442   -6.2386   -1.3745 N.pl3     1 <0>        -0.3881
     10 N3         -0.2190   -5.4172   -1.8569 N.2       1 <0>        -0.2294
     11 H2          0.5807   -7.2053   -1.4233 H         1 <0>         0.4463
     12 C7          0.1507   -4.1725   -1.6296 C.2       1 <0>        -0.0511
     13 C8         -0.2041   -2.7528   -1.8067 C.2       1 <0>         0.6156
     14 O1         -1.2064   -2.3533   -2.3668 O.2       1 <0>        -0.5289
     15 C9          2.8498   -6.1264   -0.1138 C.ar      1 <0>        -0.2072
     16 C10         3.7858   -6.8520   -0.8501 C.ar      1 <0>        -0.0267
     17 C11         4.8909   -7.3889   -0.2199 C.ar      1 <0>        -0.1666
     18 C12         5.0728   -7.2096    1.1414 C.ar      1 <0>        -0.0472
     19 C13         4.1508   -6.4925    1.8801 C.ar      1 <0>        -0.2502
     20 C14         3.0408   -5.9424    1.2601 C.ar      1 <0>         0.3021
     21 O2          2.1372   -5.2322    1.9848 O.3       1 <0>        -0.6972
     22 Cl1         6.0558   -8.2921   -1.1369 Cl        1 <0>        -0.1224
     23 C15         3.1104   -2.5193   -1.3391 C.ar      1 <0>        -0.0799
     24 C16         3.1668   -2.3057   -2.7044 C.ar      1 <0>        -0.0809
     25 C17         4.3778   -2.0451   -3.3146 C.ar      1 <0>        -0.1012
     26 C18         5.5406   -1.9973   -2.5551 C.ar      1 <0>        -0.0817
     27 C19         5.4800   -2.2119   -1.1834 C.ar      1 <0>        -0.1276
     28 C20         4.2647   -2.4668   -0.5793 C.ar      1 <0>        -0.0725
     29 S1          7.0882   -1.6657   -3.3295 S.3       1 <0>        -0.1323
     30 C21         8.2802   -1.7049   -1.9627 C.3       1 <0>        -0.1413
     31 H3          1.0039    1.9031    0.0027 H         1 <0>         0.0552
     32 H4         -0.5459    1.8868   -0.8726 H         1 <0>         0.0552
     33 H5         -0.5289    1.8773    0.9072 H         1 <0>         0.0566
     34 H6          0.5293   -0.3651    0.8851 H         1 <0>         0.0689
     35 H7         -1.0205   -0.3814    0.0098 H         1 <0>         0.0681
     36 H8          0.1910   -0.1364   -2.1398 H         1 <0>         0.0850
     37 H9          1.7408   -0.1202   -1.2645 H         1 <0>         0.0836
     38 H10         3.6464   -6.9941   -1.9116 H         1 <0>         0.1029
     39 H11         5.9393   -7.6326    1.6280 H         1 <0>         0.1050
     40 H12         4.2983   -6.3570    2.9414 H         1 <0>         0.1087
     41 H13         2.2627   -2.3431   -3.2940 H         1 <0>         0.1214
     42 H14         4.4212   -1.8791   -4.3809 H         1 <0>         0.1241
     43 H15         6.3816   -2.1755   -0.5901 H         1 <0>         0.1223
     44 H16         4.2163   -2.6297    0.4873 H         1 <0>         0.1308
     45 H17         8.0167   -0.9432   -1.2289 H         1 <0>         0.0828
     46 H18         8.2593   -2.6870   -1.4905 H         1 <0>         0.0855
     47 H19         9.2808   -1.5079   -2.3475 H         1 <0>         0.1056
@<TRIPOS>BOND
     1    1    2 1
     2    1   31 1
     3    1   32 1
     4    1   33 1
     5    2    3 1
     6    2   34 1
     7    2   35 1
     8    3    4 1
     9    3   36 1
    10    3   37 1
    11    4   13 am
    12    4    5 1
    13    5    6 1
    14    5    7 1
    15    5   23 1
    16    7   12 1
    17    7    8 2
    18    8   15 1
    19    8    9 1
    20    9   11 1
    21    9   10 1
    22   10   12 2
    23   12   13 1
    24   13   14 2
    25   15   20 ar
    26   15   16 ar
    27   16   17 ar
    28   16   38 1
    29   17   18 ar
    30   17   22 1
    31   18   19 ar
    32   18   39 1
    33   19   20 ar
    34   19   40 1
    35   20   21 1
    36   23   28 ar
    37   23   24 ar
    38   24   25 ar
    39   24   41 1
    40   25   26 ar
    41   25   42 1
    42   26   27 ar
    43   26   29 1
    44   27   28 ar
    45   27   43 1
    46   28   44 1
    47   29   30 1
    48   30   45 1
    49   30   46 1
    50   30   47 1
@<TRIPOS>MOLECULE
ZINC45940300
   54    56     0     0     0
SMALL
USER_CHARGES

@<TRIPOS>ATOM
      1 C1          0.5871    1.6461   -0.4214 C.3       1 <0>        -0.1529
      2 C2          0.3851    0.1323   -0.3282 C.3       1 <0>        -0.1150
      3 C3          1.1843   -0.5580   -1.4352 C.3       1 <0>        -0.0419
      4 H1          0.9019   -0.1405   -2.4016 H         1 <0>         0.0685
      5 C4          2.6795   -0.3340   -1.2002 C.3       1 <0>        -0.1423
      6 C5          0.8894   -2.0358   -1.4209 C.ar      1 <0>        -0.1361
      7 C6          1.1615   -2.7826   -0.2893 C.ar      1 <0>        -0.0966
      8 C7          0.8924   -4.1371   -0.2729 C.ar      1 <0>        -0.1848
      9 C8          0.3480   -4.7491   -1.3945 C.ar      1 <0>         0.1817
     10 C9          0.0759   -3.9961   -2.5294 C.ar      1 <0>        -0.1841
     11 C10         0.3421   -2.6409   -2.5373 C.ar      1 <0>        -0.1003
     12 N1          0.0747   -6.1208   -1.3814 N.pl3     1 <0>        -0.6566
     13 C11        -0.3199   -6.7492   -2.5273 C.2       1 <0>         0.6088
     14 N2         -0.5713   -6.0207   -3.6528 N.2       1 <0>        -0.6788
     15 C12        -0.9948   -6.6950   -4.8825 C.3       1 <0>         0.1270
     16 C13        -1.2052   -5.6724   -5.9692 C.ar      1 <0>         0.0038
     17 C14        -2.4417   -5.0714   -6.1484 C.ar      1 <0>        -0.1633
     18 C15        -2.5972   -4.1379   -7.1557 C.ar      1 <0>         0.0882
     19 N3         -1.5870   -3.8181   -7.9407 N.ar      1 <0>        -0.5009
     20 C16        -0.3974   -4.3693   -7.7993 C.ar      1 <0>         0.0884
     21 C17        -0.1654   -5.3061   -6.8101 C.ar      1 <0>        -0.1632
     22 N4         -0.4587   -8.0662   -2.5462 N.2       1 <0>        -0.7247
     23 C18        -0.0298   -8.7998   -1.5108 C.2       1 <0>         0.5125
     24 O1          0.5878   -8.2707   -0.6039 O.2       1 <0>        -0.6279
     25 C19        -0.3065  -10.2542   -1.4686 C.ar      1 <0>        -0.0757
     26 C20        -1.0086  -10.8639   -2.5086 C.ar      1 <0>        -0.0600
     27 C21        -1.2636  -12.2190   -2.4642 C.ar      1 <0>        -0.1275
     28 C22        -0.8248  -12.9739   -1.3911 C.ar      1 <0>        -0.1057
     29 C23        -0.1275  -12.3753   -0.3557 C.ar      1 <0>        -0.0496
     30 C24         0.1388  -11.0205   -0.3919 C.ar      1 <0>        -0.0718
     31 Cl1         0.4189  -13.3302    0.9872 Cl        1 <0>        -0.0828
     32 H2          1.6455    1.8792   -0.3047 H         1 <0>         0.0543
     33 H3          0.2421    1.9996   -1.3930 H         1 <0>         0.0516
     34 H4          0.0177    2.1379    0.3673 H         1 <0>         0.0491
     35 H5          0.7300   -0.2211    0.6435 H         1 <0>         0.0600
     36 H6         -0.6733   -0.1008   -0.4448 H         1 <0>         0.0609
     37 H7          2.8928    0.7349   -1.2106 H         1 <0>         0.0514
     38 H8          2.9620   -0.7515   -0.2337 H         1 <0>         0.0528
     39 H9          3.2489   -0.8258   -1.9889 H         1 <0>         0.0527
     40 H10         1.5852   -2.3062    0.5825 H         1 <0>         0.1066
     41 H11         1.1054   -4.7199    0.6111 H         1 <0>         0.1078
     42 H12        -0.3474   -4.4690   -3.4032 H         1 <0>         0.2222
     43 H13         0.1267   -2.0540   -3.4180 H         1 <0>         0.1052
     44 H14        -0.2252   -7.4019   -5.1927 H         1 <0>         0.0385
     45 H15        -1.9272   -7.2296   -4.7011 H         1 <0>         0.0415
     46 H16        -3.2730   -5.3297   -5.5092 H         1 <0>         0.1277
     47 H17        -3.5572   -3.6652   -7.3018 H         1 <0>         0.1468
     48 H18         0.4059   -4.0824   -8.4617 H         1 <0>         0.1467
     49 H19         0.8124   -5.7504   -6.6961 H         1 <0>         0.1271
     50 H20         0.1655   -6.6255   -0.5580 H         1 <0>         0.4198
     51 H21        -1.3522  -10.2760   -3.3469 H         1 <0>         0.1446
     52 H22        -1.8074  -12.6915   -3.2688 H         1 <0>         0.1303
     53 H23        -1.0272  -14.0343   -1.3608 H         1 <0>         0.1280
     54 H24         0.6866  -10.5548    0.4140 H         1 <0>         0.1380
@<TRIPOS>BOND
     1    1    2 1
     2    1   32 1
     3    1   33 1
     4    1   34 1
     5    2    3 1
     6    2   35 1
     7    2   36 1
     8    3    4 1
     9    3    5 1
    10    3    6 1
    11    5   37 1
    12    5   38 1
    13    5   39 1
    14    6   11 ar
    15    6    7 ar
    16    7    8 ar
    17    7   40 1
    18    8    9 ar
    19    8   41 1
    20    9   10 ar
    21    9   12 1
    22   10   11 ar
    23   10   42 1
    24   11   43 1
    25   12   50 1
    26   12   13 1
    27   13   14 1
    28   13   22 2
    29   14   15 1
    30   15   16 1
    31   15   44 1
    32   15   45 1
    33   16   21 ar
    34   16   17 ar
    35   17   18 ar
    36   17   46 1
    37   18   19 ar
    38   18   47 1
    39   19   20 ar
    40   20   21 ar
    41   20   48 1
    42   21   49 1
    43   22   23 1
    44   23   24 2
    45   23   25 1
    46   25   30 ar
    47   25   26 ar
    48   26   27 ar
    49   26   51 1
    50   27   28 ar
    51   27   52 1
    52   28   29 ar
    53   28   53 1
    54   29   30 ar
    55   29   31 1
    56   30   54 1
@<TRIPOS>MOLECULE
ZINC49409626
   51    54     0     0     0
SMALL
USER_CHARGES

@<TRIPOS>ATOM
      1 C1         -0.0279    1.5007   -0.0620 C.3       1 <0>        -0.1125
      2 C2         -0.0056   -0.0061   -0.0555 C.ar      1 <0>        -0.0921
      3 C3         -0.0024   -0.7025   -1.2498 C.ar      1 <0>        -0.1201
      4 C4          0.0181   -2.0845   -1.2439 C.ar      1 <0>        -0.1030
      5 C5          0.0359   -2.7705   -0.0436 C.ar      1 <0>        -0.0876
      6 C6          0.0337   -2.0742    1.1503 C.ar      1 <0>        -0.0978
      7 C7          0.0175   -0.6917    1.1444 C.ar      1 <0>        -0.0918
      8 C8          0.0204    0.0675    2.4461 C.3       1 <0>        -0.1131
      9 C9          0.0572   -4.2773   -0.0371 C.3       1 <0>         0.1634
     10 N1          1.4452   -4.7461   -0.0444 N.am      1 <0>        -0.7383
     11 C10         1.7102   -6.0675   -0.0404 C.2       1 <0>         0.5975
     12 O1          0.8012   -6.8702    0.0637 O.2       1 <0>        -0.5577
     13 C11         3.0930   -6.5380   -0.1612 C.2       1 <0>        -0.4634
     14 C12         3.3777   -7.9106   -0.2829 C.2       1 <0>         0.3947
     15 C13         4.7047   -8.3074   -0.3947 C.2       1 <0>        -0.2482
     16 C14         5.7621   -7.3887   -0.3901 C.2       1 <0>         0.1601
     17 C15         7.0176   -7.9854   -0.5122 C.2       1 <0>        -0.1942
     18 C16         7.1147   -9.3269   -0.6196 C.2       1 <0>        -0.2330
     19 S1          5.5255   -9.8700   -0.5632 S.3       1 <0>         0.2276
     20 N2          5.4415   -6.0381   -0.2675 N.am      1 <0>        -0.5107
     21 C17         4.1713   -5.6214   -0.1640 C.2       1 <0>         0.5667
     22 O2          3.9408   -4.4285   -0.0649 O.2       1 <0>        -0.5955
     23 C18         6.5204   -5.0470   -0.2582 C.3       1 <0>         0.1420
     24 C19         6.8035   -4.5994   -1.6691 C.ar      1 <0>        -0.1008
     25 C20         7.7359   -5.2746   -2.4344 C.ar      1 <0>        -0.1055
     26 C21         7.9957   -4.8641   -3.7286 C.ar      1 <0>        -0.1281
     27 C22         7.3227   -3.7787   -4.2576 C.ar      1 <0>        -0.1202
     28 C23         6.3896   -3.1041   -3.4926 C.ar      1 <0>        -0.1261
     29 C24         6.1268   -3.5173   -2.1999 C.ar      1 <0>        -0.0874
     30 O3          2.3812   -8.8241   -0.2904 O.3       1 <0>        -0.6132
     31 H1          0.9942    1.8792   -0.0746 H         1 <0>         0.0673
     32 H2         -0.5566    1.8525   -0.9479 H         1 <0>         0.0626
     33 H3         -0.5375    1.8604    0.8319 H         1 <0>         0.0655
     34 H4         -0.0164   -0.1667   -2.1874 H         1 <0>         0.1186
     35 H5          0.0198   -2.6285   -2.1768 H         1 <0>         0.1215
     36 H6          0.0473   -2.6101    2.0879 H         1 <0>         0.1217
     37 H7         -1.0064    0.2354    2.7711 H         1 <0>         0.0668
     38 H8          0.5510   -0.5106    3.2027 H         1 <0>         0.0653
     39 H9          0.5187    1.0268    2.3062 H         1 <0>         0.0655
     40 H10        -0.4454   -4.6439    0.8579 H         1 <0>         0.0613
     41 H11        -0.4574   -4.6518   -0.9220 H         1 <0>         0.0602
     42 H12         2.1734   -4.1054   -0.0521 H         1 <0>         0.4106
     43 H13         7.9087   -7.3753   -0.5211 H         1 <0>         0.1273
     44 H14         8.0124   -9.9188   -0.7201 H         1 <0>         0.1850
     45 H15         6.2196   -4.1882    0.3419 H         1 <0>         0.1010
     46 H16         7.4190   -5.4920    0.1690 H         1 <0>         0.0820
     47 H17         8.2617   -6.1226   -2.0211 H         1 <0>         0.1190
     48 H18         8.7247   -5.3911   -4.3262 H         1 <0>         0.1182
     49 H19         7.5261   -3.4575   -5.2685 H         1 <0>         0.1172
     50 H20         5.8641   -2.2559   -3.9058 H         1 <0>         0.1193
     51 H21         5.3951   -2.9925   -1.6035 H         1 <0>         0.1325
@<TRIPOS>BOND
     1    1    2 1
     2    1   31 1
     3    1   32 1
     4    1   33 1
     5    2    7 ar
     6    2    3 ar
     7    3    4 ar
     8    3   34 1
     9    4    5 ar
    10    4   35 1
    11    5    6 ar
    12    5    9 1
    13    6    7 ar
    14    6   36 1
    15    7    8 1
    16    8   37 1
    17    8   38 1
    18    8   39 1
    19    9   10 1
    20    9   40 1
    21    9   41 1
    22   10   11 am
    23   10   42 1
    24   11   12 2
    25   11   13 1
    26   13   21 1
    27   13   14 2
    28   14   15 1
    29   14   30 1
    30   15   19 1
    31   15   16 2
    32   16   17 1
    33   16   20 1
    34   17   18 2
    35   17   43 1
    36   18   19 1
    37   18   44 1
    38   20   21 am
    39   20   23 1
    40   21   22 2
    41   23   24 1
    42   23   45 1
    43   23   46 1
    44   24   29 ar
    45   24   25 ar
    46   25   26 ar
    47   25   47 1
    48   26   27 ar
    49   26   48 1
    50   27   28 ar
    51   27   49 1
    52   28   29 ar
    53   28   50 1
    54   29   51 1
@<TRIPOS>MOLECULE
ZINC34922674
   58    60     0     0     0
SMALL
USER_CHARGES

@<TRIPOS>ATOM
      1 C1         -0.6949    0.9244   -0.3080 C.3       1 <0>        -0.1503
      2 C2         -0.2783   -0.5411   -0.1679 C.3       1 <0>         0.0669
      3 O1          0.4799   -0.7081    1.0318 O.3       1 <0>        -0.3536
      4 C3          0.8414   -1.9686    1.3587 C.2       1 <0>         0.5386
      5 O2          0.6007   -2.8887    0.5965 O.2       1 <0>        -0.5503
      6 C4          1.4923   -2.2176    2.5731 C.2       1 <0>        -0.3906
      7 C5          1.9308   -3.4862    2.9009 C.2       1 <0>         0.3023
      8 N1          2.5445   -3.7068    4.0520 N.2       1 <0>        -0.5980
      9 C6          2.7903   -2.7860    4.9612 C.2       1 <0>         0.3234
     10 N2          2.4389   -1.4716    4.8300 N.pl3     1 <0>        -0.5103
     11 C7          1.7445   -1.1057    3.5667 C.3       1 <0>         0.2612
     12 H1          2.3333   -0.3363    3.0671 H         1 <0>         0.0730
     13 C8          0.4141   -0.4999    3.9326 C.ar      1 <0>        -0.0728
     14 C9          0.0403    0.7202    3.4005 C.ar      1 <0>        -0.0737
     15 C10        -1.1800    1.2758    3.7361 C.ar      1 <0>        -0.1332
     16 C11        -2.0270    0.6113    4.6035 C.ar      1 <0>        -0.1185
     17 C12        -1.6537   -0.6088    5.1348 C.ar      1 <0>        -0.1271
     18 C13        -0.4349   -1.1666    4.7957 C.ar      1 <0>        -0.0559
     19 C14        -0.0301   -2.4995    5.3709 C.3       1 <0>        -0.1286
     20 C15         2.7674   -0.6278    5.8722 C.2       1 <0>         0.2372
     21 C16         3.4070   -1.1638    6.9350 C.2       1 <0>        -0.3068
     22 S1          3.5450   -2.8748    6.4577 S.3       1 <0>         0.1398
     23 C17         2.4336    0.8031    5.8272 C.2       1 <0>        -0.4734
     24 C18         2.9021    1.6342    6.7779 C.2       1 <0>         0.5084
     25 O3          3.7988    1.1844    7.6892 O.3       1 <0>        -0.6971
     26 N3          2.4675    2.9480    6.8243 N.pl3     1 <0>        -0.7477
     27 C19         3.0188    3.8670    7.8232 C.3       1 <0>         0.1857
     28 C20         4.5359    3.9601    7.6483 C.3       1 <0>        -0.1603
     29 C21         2.3980    5.2532    7.6384 C.3       1 <0>        -0.1528
     30 C22         2.6981    3.3475    9.2261 C.3       1 <0>        -0.1592
     31 C23         1.7080   -4.6264    1.9410 C.3       1 <0>        -0.1173
     32 H2          0.1949    1.5526   -0.3501 H         1 <0>         0.0629
     33 H3         -1.2732    1.0518   -1.2231 H         1 <0>         0.0707
     34 H4         -1.3031    1.2128    0.5493 H         1 <0>         0.0652
     35 H5         -1.1680   -1.1694   -0.1258 H         1 <0>         0.0580
     36 H6          0.3300   -0.8295   -1.0252 H         1 <0>         0.0577
     37 H7          0.7019    1.2393    2.7229 H         1 <0>         0.1178
     38 H8         -1.4717    2.2292    3.3210 H         1 <0>         0.1141
     39 H9         -2.9802    1.0458    4.8663 H         1 <0>         0.1130
     40 H10        -2.3152   -1.1278    5.8127 H         1 <0>         0.1128
     41 H11         0.5222   -2.3427    6.2974 H         1 <0>         0.0657
     42 H12        -0.9214   -3.0928    5.5751 H         1 <0>         0.0568
     43 H13         0.6015   -3.0269    4.6561 H         1 <0>         0.0760
     44 H14         3.7468   -0.6804    7.8391 H         1 <0>         0.2312
     45 H15         1.8127    1.1879    5.0317 H         1 <0>         0.0900
     46 H16         1.7981    3.2600    6.1955 H         1 <0>         0.3823
     47 H17         4.7633    4.4075    6.6807 H         1 <0>         0.0388
     48 H18         4.9559    4.5780    8.4420 H         1 <0>         0.0423
     49 H19         4.9693    2.9612    7.6976 H         1 <0>         0.0912
     50 H20         1.3172    5.1869    7.7631 H         1 <0>         0.0532
     51 H21         2.8082    5.9370    8.3816 H         1 <0>         0.0608
     52 H22         2.6265    5.6233    6.6390 H         1 <0>         0.0529
     53 H23         3.0850    2.3344    9.3357 H         1 <0>         0.0908
     54 H24         3.1627    3.9962    9.9688 H         1 <0>         0.0414
     55 H25         1.6181    3.3419    9.3734 H         1 <0>         0.0392
     56 H26         2.5117   -4.6439    1.2049 H         1 <0>         0.0791
     57 H27         1.6983   -5.5676    2.4908 H         1 <0>         0.0646
     58 H28         0.7529   -4.4925    1.4332 H         1 <0>         0.1127
@<TRIPOS>BOND
     1    1    2 1
     2    1   32 1
     3    1   33 1
     4    1   34 1
     5    2    3 1
     6    2   35 1
     7    2   36 1
     8    3    4 1
     9    4    5 2
    10    4    6 1
    11    6   11 1
    12    6    7 2
    13    7    8 1
    14    7   31 1
    15    8    9 2
    16    9   22 1
    17    9   10 1
    18   10   11 1
    19   10   20 1
    20   11   12 1
    21   11   13 1
    22   13   18 ar
    23   13   14 ar
    24   14   15 ar
    25   14   37 1
    26   15   16 ar
    27   15   38 1
    28   16   17 ar
    29   16   39 1
    30   17   18 ar
    31   17   40 1
    32   18   19 1
    33   19   41 1
    34   19   42 1
    35   19   43 1
    36   20   21 2
    37   20   23 1
    38   21   22 1
    39   21   44 1
    40   23   24 2
    41   23   45 1
    42   24   25 1
    43   24   26 1
    44   26   27 1
    45   26   46 1
    46   27   28 1
    47   27   29 1
    48   27   30 1
    49   28   47 1
    50   28   48 1
    51   28   49 1
    52   29   50 1
    53   29   51 1
    54   29   52 1
    55   30   53 1
    56   30   54 1
    57   30   55 1
    58   31   56 1
    59   31   57 1
    60   31   58 1
@<TRIPOS>MOLECULE
ZINC35703811
   58    60     0     0     0
SMALL
USER_CHARGES

@<TRIPOS>ATOM
      1 C1          2.0367    2.8026    2.3530 C.3       1 <0>        -0.1617
      2 C2          2.4674    1.4863    3.0032 C.3       1 <0>         0.1344
      3 N1          1.8894    0.3631    2.2612 N.pl3     1 <0>        -0.7566
      4 C3          2.2238   -0.9368    2.6015 C.2       1 <0>         0.5005
      5 O1          3.0030   -1.1747    3.6846 O.3       1 <0>        -0.7044
      6 C4          1.7746   -1.9648    1.8562 C.2       1 <0>        -0.4655
      7 C5          2.0264   -3.3483    2.2844 C.2       1 <0>         0.2310
      8 C6          2.8149   -3.6189    3.3479 C.2       1 <0>        -0.3062
      9 S1          2.7636   -5.3991    3.4014 S.3       1 <0>         0.1374
     10 C7          1.7569   -5.6670    2.0854 C.2       1 <0>         0.3205
     11 N2          1.2963   -6.7795    1.5516 N.2       1 <0>        -0.5970
     12 C8          0.4980   -6.8372    0.4981 C.2       1 <0>         0.2984
     13 C9          0.0833   -5.6787   -0.1305 C.2       1 <0>        -0.3908
     14 C10         0.5722   -4.3604    0.4268 C.3       1 <0>         0.2598
     15 H1          1.1032   -3.8364   -0.3680 H         1 <0>         0.0707
     16 N3          1.4611   -4.4171    1.6178 N.pl3     1 <0>        -0.5125
     17 C11        -0.6346   -3.5360    0.7943 C.ar      1 <0>        -0.0626
     18 C12        -1.3779   -3.8597    1.9142 C.ar      1 <0>        -0.0967
     19 C13        -2.4847   -3.1037    2.2513 C.ar      1 <0>        -0.1206
     20 C14        -2.8483   -2.0234    1.4688 C.ar      1 <0>        -0.1224
     21 C15        -2.1048   -1.6992    0.3498 C.ar      1 <0>        -0.0931
     22 C16        -0.9951   -2.4529    0.0150 C.ar      1 <0>        -0.0723
     23 C17        -2.5013   -0.5220   -0.5033 C.3       1 <0>        -0.1079
     24 C18        -0.7610   -5.7237   -1.2465 C.2       1 <0>         0.5408
     25 O2         -1.1425   -6.7973   -1.6791 O.2       1 <0>        -0.5463
     26 O3         -1.1528   -4.5766   -1.8440 O.3       1 <0>        -0.3437
     27 C19        -2.0144   -4.6972   -2.9777 C.3       1 <0>         0.1210
     28 C20        -3.3051   -5.4070   -2.5642 C.3       1 <0>        -0.1796
     29 C21        -2.3481   -3.3041   -3.5151 C.3       1 <0>        -0.1389
     30 C22        -1.3123   -5.5095   -4.0677 C.3       1 <0>        -0.1816
     31 C23         0.0382   -8.1755   -0.0201 C.3       1 <0>        -0.0903
     32 H2          0.9494    2.8773    2.3696 H         1 <0>         0.0537
     33 H3          2.4668    3.6383    2.9051 H         1 <0>         0.0618
     34 H4          2.3872    2.8300    1.3213 H         1 <0>         0.0543
     35 H5          3.5548    1.4115    2.9866 H         1 <0>         0.0514
     36 H6          2.1170    1.4589    4.0350 H         1 <0>         0.0464
     37 H7          1.2725    0.5300    1.5315 H         1 <0>         0.3842
     38 H8          1.2294   -1.7727    0.9439 H         1 <0>         0.0880
     39 H9          3.3400   -2.9339    3.9971 H         1 <0>         0.2369
     40 H10        -1.0939   -4.7036    2.5254 H         1 <0>         0.1021
     41 H11        -3.0658   -3.3570    3.1257 H         1 <0>         0.1129
     42 H12        -3.7136   -1.4330    1.7318 H         1 <0>         0.1124
     43 H13        -0.4118   -2.1973   -0.8573 H         1 <0>         0.1151
     44 H14        -1.9448    0.3601   -0.1866 H         1 <0>         0.0655
     45 H15        -2.2763   -0.7379   -1.5478 H         1 <0>         0.0627
     46 H16        -3.5698   -0.3366   -0.3927 H         1 <0>         0.0591
     47 H17        -3.8053   -4.8283   -1.7877 H         1 <0>         0.0554
     48 H18        -3.9623   -5.4990   -3.4290 H         1 <0>         0.0587
     49 H19        -3.0673   -6.3995   -2.1814 H         1 <0>         0.0854
     50 H20        -1.4286   -2.7984   -3.8097 H         1 <0>         0.0617
     51 H21        -3.0053   -3.3960   -4.3798 H         1 <0>         0.0691
     52 H22        -2.8483   -2.7254   -2.7385 H         1 <0>         0.0648
     53 H23        -1.0745   -6.5020   -3.6849 H         1 <0>         0.0861
     54 H24        -1.9694   -5.6015   -4.9325 H         1 <0>         0.0597
     55 H25        -0.3927   -5.0038   -4.3623 H         1 <0>         0.0547
     56 H26         0.4623   -8.9687    0.5955 H         1 <0>         0.0622
     57 H27        -1.0499   -8.2265    0.0205 H         1 <0>         0.0857
     58 H28         0.3695   -8.2992   -1.0512 H         1 <0>         0.0861
@<TRIPOS>BOND
     1    1    2 1
     2    1   32 1
     3    1   33 1
     4    1   34 1
     5    2    3 1
     6    2   35 1
     7    2   36 1
     8    3    4 1
     9    3   37 1
    10    4    5 1
    11    4    6 2
    12    6    7 1
    13    6   38 1
    14    7   16 1
    15    7    8 2
    16    8    9 1
    17    8   39 1
    18    9   10 1
    19   10   16 1
    20   10   11 2
    21   11   12 1
    22   12   13 2
    23   12   31 1
    24   13   14 1
    25   13   24 1
    26   14   15 1
    27   14   16 1
    28   14   17 1
    29   17   22 ar
    30   17   18 ar
    31   18   19 ar
    32   18   40 1
    33   19   20 ar
    34   19   41 1
    35   20   21 ar
    36   20   42 1
    37   21   22 ar
    38   21   23 1
    39   22   43 1
    40   23   44 1
    41   23   45 1
    42   23   46 1
    43   24   25 2
    44   24   26 1
    45   26   27 1
    46   27   28 1
    47   27   29 1
    48   27   30 1
    49   28   47 1
    50   28   48 1
    51   28   49 1
    52   29   50 1
    53   29   51 1
    54   29   52 1
    55   30   53 1
    56   30   54 1
    57   30   55 1
    58   31   56 1
    59   31   57 1
    60   31   58 1
@<TRIPOS>MOLECULE
ZINC36050471
   55    57     0     0     0
SMALL
USER_CHARGES

@<TRIPOS>ATOM
      1 C1          0.2587    0.7607   -0.0355 C.3       1 <0>        -0.0920
      2 C2         -0.0338   -0.7130    0.0810 C.2       1 <0>         0.3105
      3 C3         -1.3378   -1.1624   -0.0014 C.2       1 <0>        -0.3948
      4 C4         -1.5800   -2.6502    0.1208 C.3       1 <0>         0.2633
      5 H1         -2.2569   -2.8122    0.9597 H         1 <0>         0.0742
      6 N1         -0.3873   -3.5158    0.3211 N.pl3     1 <0>        -0.5113
      7 C5         -0.3709   -4.8897    0.4568 C.2       1 <0>         0.2330
      8 C6          0.8280   -5.4881    0.6312 C.2       1 <0>        -0.3036
      9 S1          1.9416   -4.0976    0.6032 S.3       1 <0>         0.1307
     10 C7          0.8174   -2.8724    0.3749 C.2       1 <0>         0.3369
     11 N2          0.9603   -1.5684    0.2559 N.2       1 <0>        -0.5940
     12 C8         -1.6137   -5.6736    0.4135 C.2       1 <0>        -0.4726
     13 C9         -1.5879   -6.9924    0.6859 C.2       1 <0>         0.5021
     14 O1         -0.4033   -7.6202    0.8849 O.3       1 <0>        -0.7031
     15 N3         -2.7715   -7.7068    0.7626 N.pl3     1 <0>        -0.7510
     16 C10        -2.7526   -9.1143    1.1684 C.3       1 <0>         0.1501
     17 C11        -2.8404   -9.2066    2.6931 C.3       1 <0>        -0.1574
     18 C12        -3.9453   -9.8412    0.5440 C.3       1 <0>        -0.1570
     19 C13        -2.2813   -3.1105   -1.1312 C.ar      1 <0>        -0.0614
     20 C14        -3.6233   -3.4394   -1.0907 C.ar      1 <0>        -0.0642
     21 C15        -4.2667   -3.8615   -2.2389 C.ar      1 <0>        -0.1218
     22 C16        -3.5685   -3.9550   -3.4286 C.ar      1 <0>        -0.1109
     23 C17        -2.2268   -3.6265   -3.4703 C.ar      1 <0>        -0.1190
     24 C18        -1.5836   -3.1984   -2.3224 C.ar      1 <0>        -0.0128
     25 Cl1         0.1002   -2.7791   -2.3755 Cl        1 <0>        -0.0664
     26 C19        -2.3998   -0.2698   -0.1912 C.2       1 <0>         0.5353
     27 O2         -2.1910    0.9308   -0.2089 O.2       1 <0>        -0.5512
     28 O3         -3.6563   -0.7397   -0.3549 O.3       1 <0>        -0.3490
     29 C20        -4.6738    0.2188   -0.6514 C.3       1 <0>         0.0801
     30 C21        -4.8440    0.3295   -2.1679 C.3       1 <0>        -0.1642
     31 C22        -5.9945   -0.2280   -0.0213 C.3       1 <0>        -0.1475
     32 H2          1.3330    0.9256    0.0476 H         1 <0>         0.0628
     33 H3         -0.0912    1.1254   -1.0012 H         1 <0>         0.0830
     34 H4         -0.2540    1.2971    0.7630 H         1 <0>         0.0875
     35 H5          1.0528   -6.5371    0.7558 H         1 <0>         0.2360
     36 H6         -2.5474   -5.1920    0.1633 H         1 <0>         0.0889
     37 H7         -3.6132   -7.2753    0.5476 H         1 <0>         0.3823
     38 H8         -1.8263   -9.5779    0.8291 H         1 <0>         0.0814
     39 H9         -2.7387  -10.2474    3.0005 H         1 <0>         0.0490
     40 H10        -2.0403   -8.6161    3.1395 H         1 <0>         0.0595
     41 H11        -3.8046   -8.8221    3.0255 H         1 <0>         0.0439
     42 H12        -3.8828   -9.7754   -0.5422 H         1 <0>         0.0547
     43 H13        -3.9312  -10.8885    0.8460 H         1 <0>         0.0594
     44 H14        -4.8716   -9.3777    0.8833 H         1 <0>         0.0509
     45 H15        -4.1692   -3.3669   -0.1616 H         1 <0>         0.1255
     46 H16        -5.3151   -4.1187   -2.2067 H         1 <0>         0.1216
     47 H17        -4.0716   -4.2852   -4.3253 H         1 <0>         0.1231
     48 H18        -1.6814   -3.6998   -4.3996 H         1 <0>         0.1241
     49 H19        -4.3879    1.1894   -0.2461 H         1 <0>         0.0792
     50 H20        -5.1299   -0.6411   -2.5732 H         1 <0>         0.0621
     51 H21        -5.6201    1.0606   -2.3940 H         1 <0>         0.0641
     52 H22        -3.9031    0.6478   -2.6168 H         1 <0>         0.0568
     53 H23        -5.8992   -0.2227    1.0645 H         1 <0>         0.0594
     54 H24        -6.7891    0.4560   -0.3195 H         1 <0>         0.0692
     55 H25        -6.2362   -1.2354   -0.3599 H         1 <0>         0.0644
@<TRIPOS>BOND
     1    1    2 1
     2    1   32 1
     3    1   33 1
     4    1   34 1
     5    2   11 1
     6    2    3 2
     7    3    4 1
     8    3   26 1
     9    4    5 1
    10    4    6 1
    11    4   19 1
    12    6   10 1
    13    6    7 1
    14    7    8 2
    15    7   12 1
    16    8    9 1
    17    8   35 1
    18    9   10 1
    19   10   11 2
    20   12   13 2
    21   12   36 1
    22   13   14 1
    23   13   15 1
    24   15   16 1
    25   15   37 1
    26   16   17 1
    27   16   18 1
    28   16   38 1
    29   17   39 1
    30   17   40 1
    31   17   41 1
    32   18   42 1
    33   18   43 1
    34   18   44 1
    35   19   24 ar
    36   19   20 ar
    37   20   21 ar
    38   20   45 1
    39   21   22 ar
    40   21   46 1
    41   22   23 ar
    42   22   47 1
    43   23   24 ar
    44   23   48 1
    45   24   25 1
    46   26   27 2
    47   26   28 1
    48   28   29 1
    49   29   30 1
    50   29   31 1
    51   29   49 1
    52   30   50 1
    53   30   51 1
    54   30   52 1
    55   31   53 1
    56   31   54 1
    57   31   55 1
@<TRIPOS>MOLECULE
ZINC40400453
   53    56     0     0     0
SMALL
USER_CHARGES

@<TRIPOS>ATOM
      1 C1          0.2981    0.9911    0.7327 C.3       1 <0>        -0.1493
      2 C2          0.1232   -0.5054    0.4670 C.3       1 <0>         0.0659
      3 O1         -1.2634   -0.8432    0.5393 O.3       1 <0>        -0.3550
      4 C3         -1.5826   -2.1518    0.4301 C.2       1 <0>         0.5355
      5 O2         -0.7010   -2.9911    0.3692 O.2       1 <0>        -0.5498
      6 C4         -2.9262   -2.5434    0.3870 C.2       1 <0>        -0.3944
      7 C5         -3.2795   -3.8554    0.1361 C.2       1 <0>         0.3121
      8 N1         -4.5533   -4.2112    0.0983 N.2       1 <0>        -0.5940
      9 C6         -5.5680   -3.3929    0.2869 C.2       1 <0>         0.3364
     10 N2         -5.4330   -2.0580    0.5484 N.pl3     1 <0>        -0.5117
     11 C7         -4.0387   -1.5457    0.6197 C.3       1 <0>         0.2629
     12 H1         -3.8908   -1.1018    1.6042 H         1 <0>         0.0749
     13 C8         -3.8994   -0.4485   -0.4039 C.ar      1 <0>        -0.0621
     14 C9         -3.4671    0.8065   -0.0177 C.ar      1 <0>        -0.0640
     15 C10        -3.3393    1.8129   -0.9564 C.ar      1 <0>        -0.1218
     16 C11        -3.6438    1.5652   -2.2821 C.ar      1 <0>        -0.1107
     17 C12        -4.0761    0.3111   -2.6694 C.ar      1 <0>        -0.1190
     18 C13        -4.1988   -0.6984   -1.7311 C.ar      1 <0>        -0.0133
     19 Cl1        -4.7355   -2.2760   -2.2179 Cl        1 <0>        -0.0666
     20 C14        -6.5949   -1.3328    0.7228 C.2       1 <0>         0.2360
     21 C15        -7.7684   -1.9951    0.6219 C.2       1 <0>        -0.3031
     22 S1         -7.2255   -3.6567    0.2772 S.3       1 <0>         0.1362
     23 C16        -6.5566    0.1086    1.0085 C.2       1 <0>        -0.4742
     24 C17        -7.6906    0.7628    1.3250 C.2       1 <0>         0.5016
     25 O3         -8.8396    0.0713    1.5211 O.3       1 <0>        -0.7050
     26 N3         -7.6825    2.1418    1.4501 N.pl3     1 <0>        -0.7536
     27 C18        -8.9159    2.8533    1.7944 C.3       1 <0>         0.1715
     28 C19        -8.6344    4.3553    1.8690 C.3       1 <0>        -0.1617
     29 C20        -8.8151    5.0415    3.2245 C.3       1 <0>        -0.1802
     30 C21        -9.8257    5.2867    2.1022 C.3       1 <0>        -0.1767
     31 C22        -2.2069   -4.8880   -0.0966 C.3       1 <0>        -0.1063
     32 H2          1.3606    1.2325    0.7659 H         1 <0>         0.0704
     33 H3         -0.1790    1.5600   -0.0653 H         1 <0>         0.0634
     34 H4         -0.1625    1.2470    1.6869 H         1 <0>         0.0636
     35 H5          0.5043   -0.7452   -0.5257 H         1 <0>         0.0561
     36 H6          0.6752   -1.0743    1.2153 H         1 <0>         0.0596
     37 H7         -3.2294    1.0006    1.0178 H         1 <0>         0.1255
     38 H8         -3.0018    2.7933   -0.6541 H         1 <0>         0.1221
     39 H9         -3.5441    2.3522   -3.0151 H         1 <0>         0.1234
     40 H10        -4.3143    0.1179   -3.7049 H         1 <0>         0.1244
     41 H11        -8.7744   -1.6157    0.7242 H         1 <0>         0.2301
     42 H12        -5.6191    0.6431    0.9647 H         1 <0>         0.0904
     43 H13        -6.8601    2.6367    1.3098 H         1 <0>         0.3843
     44 H14        -9.6705    2.6626    1.0313 H         1 <0>         0.0540
     45 H15        -9.2797    2.5034    2.7605 H         1 <0>         0.0512
     46 H16        -7.8322    4.7158    1.2250 H         1 <0>         0.1038
     47 H17        -9.1346    4.4228    4.0631 H         1 <0>         0.0946
     48 H18        -8.1317    5.8535    3.4726 H         1 <0>         0.0901
     49 H19        -9.8070    6.2600    1.6120 H         1 <0>         0.0918
     50 H20       -10.8100    4.8293    2.2025 H         1 <0>         0.0951
     51 H21        -1.8476   -5.2611    0.8625 H         1 <0>         0.0813
     52 H22        -2.6176   -5.7142   -0.6770 H         1 <0>         0.0631
     53 H23        -1.3796   -4.4357   -0.6435 H         1 <0>         0.1009
@<TRIPOS>BOND
     1    1    2 1
     2    1   32 1
     3    1   33 1
     4    1   34 1
     5    2    3 1
     6    2   35 1
     7    2   36 1
     8    3    4 1
     9    4    5 2
    10    4    6 1
    11    6   11 1
    12    6    7 2
    13    7    8 1
    14    7   31 1
    15    8    9 2
    16    9   22 1
    17    9   10 1
    18   10   11 1
    19   10   20 1
    20   11   12 1
    21   11   13 1
    22   13   18 ar
    23   13   14 ar
    24   14   15 ar
    25   14   37 1
    26   15   16 ar
    27   15   38 1
    28   16   17 ar
    29   16   39 1
    30   17   18 ar
    31   17   40 1
    32   18   19 1
    33   20   21 2
    34   20   23 1
    35   21   22 1
    36   21   41 1
    37   23   24 2
    38   23   42 1
    39   24   25 1
    40   24   26 1
    41   26   27 1
    42   26   43 1
    43   27   28 1
    44   27   44 1
    45   27   45 1
    46   28   30 1
    47   28   29 1
    48   28   46 1
    49   29   30 1
    50   29   47 1
    51   29   48 1
    52   30   49 1
    53   30   50 1
    54   31   51 1
    55   31   52 1
    56   31   53 1
@<TRIPOS>MOLECULE
ZINC02359883
   53    57     0     0     0
SMALL
USER_CHARGES

@<TRIPOS>ATOM
      1 C1         -0.0167    1.3798    0.0096 C.ar      1 <0>        -0.1053
      2 C2          1.1681    2.0952    0.0022 C.ar      1 <0>        -0.1229
      3 C3          2.3774    1.4330   -0.0134 C.ar      1 <0>        -0.0912
      4 C4          2.4048    0.0349   -0.0211 C.ar      1 <0>        -0.0822
      5 C5          1.2034   -0.6808   -0.0130 C.ar      1 <0>        -0.0992
      6 C6          0.0021   -0.0041    0.0020 C.ar      1 <0>        -0.1232
      7 C7          3.6915   -0.6798   -0.0381 C.2       1 <0>        -0.0031
      8 C8          3.7139   -2.0279   -0.0455 C.2       1 <0>        -0.2156
      9 C9          4.9934   -2.7386   -0.0625 C.2       1 <0>         0.5481
     10 O1          6.0372   -2.1126   -0.0699 O.2       1 <0>        -0.4769
     11 N1          5.0158   -4.0862   -0.0699 N.am      1 <0>        -0.6243
     12 C10         6.2370   -4.7645   -0.0861 C.2       1 <0>         0.4509
     13 N2          7.4433   -4.1865   -0.0896 N.2       1 <0>        -0.4689
     14 C11         8.3739   -5.1086   -0.1078 C.2       1 <0>         0.4442
     15 N3          7.7493   -6.3259   -0.1081 N.pl3     1 <0>        -0.3989
     16 N4          6.3816   -6.0741   -0.0945 N.2       1 <0>        -0.3109
     17 C12         8.4852   -7.5903   -0.1092 C.3       1 <0>         0.2085
     18 H1          7.9114   -8.3501   -0.6398 H         1 <0>         0.1286
     19 C13         9.8230   -7.3593   -0.8218 C.3       1 <0>        -0.1491
     20 C14        10.4424   -6.0570   -0.3992 C.2       1 <0>         0.2658
     21 N5          9.7297   -5.0031   -0.1032 N.2       1 <0>        -0.4296
     22 C15        11.9080   -5.9657   -0.3150 C.ar      1 <0>        -0.0792
     23 C16        12.7005   -7.0746   -0.6303 C.ar      1 <0>        -0.0677
     24 C17        14.0733   -6.9816   -0.5491 C.ar      1 <0>        -0.1172
     25 C18        14.6686   -5.7939   -0.1559 C.ar      1 <0>        -0.0067
     26 C19        13.8900   -4.6916    0.1579 C.ar      1 <0>        -0.1182
     27 C20        12.5163   -4.7679    0.0752 C.ar      1 <0>        -0.0444
     28 Cl1        16.3983   -5.6865   -0.0554 Cl        1 <0>        -0.0577
     29 C21         8.7327   -8.0368    1.3087 C.ar      1 <0>        -0.1196
     30 C22         9.4527   -7.2316    2.1713 C.ar      1 <0>        -0.1037
     31 C23         9.6797   -7.6412    3.4719 C.ar      1 <0>        -0.1147
     32 C24         9.1863   -8.8558    3.9101 C.ar      1 <0>        -0.1042
     33 C25         8.4654   -9.6607    3.0478 C.ar      1 <0>        -0.1183
     34 C26         8.2348   -9.2491    1.7484 C.ar      1 <0>        -0.0909
     35 H2         -0.9607    1.9041    0.0260 H         1 <0>         0.1254
     36 H3          1.1453    3.1750    0.0081 H         1 <0>         0.1276
     37 H4          3.3011    1.9926   -0.0199 H         1 <0>         0.1297
     38 H5          1.2165   -1.7607   -0.0189 H         1 <0>         0.1281
     39 H6         -0.9266   -0.5554    0.0082 H         1 <0>         0.1269
     40 H7          4.6177   -0.1243   -0.0447 H         1 <0>         0.1395
     41 H8          2.7877   -2.5834   -0.0390 H         1 <0>         0.1348
     42 H9          4.1839   -4.5851   -0.0640 H         1 <0>         0.4255
     43 H10        10.5037   -8.1750   -0.5781 H         1 <0>         0.1303
     44 H11         9.6565   -7.3433   -1.8989 H         1 <0>         0.1205
     45 H12        12.2379   -8.0012   -0.9363 H         1 <0>         0.1425
     46 H13        14.6864   -7.8368   -0.7922 H         1 <0>         0.1431
     47 H14        14.3609   -3.7691    0.4640 H         1 <0>         0.1430
     48 H15        11.9108   -3.9065    0.3158 H         1 <0>         0.1516
     49 H16         9.8382   -6.2826    1.8289 H         1 <0>         0.1188
     50 H17        10.2429   -7.0123    4.1456 H         1 <0>         0.1263
     51 H18         9.3642   -9.1762    4.9260 H         1 <0>         0.1271
     52 H19         8.0802  -10.6098    3.3901 H         1 <0>         0.1288
     53 H20         7.6685   -9.8762    1.0758 H         1 <0>         0.1281
@<TRIPOS>BOND
     1    1    6 ar
     2    1    2 ar
     3    1   35 1
     4    2    3 ar
     5    2   36 1
     6    3    4 ar
     7    3   37 1
     8    4    5 ar
     9    4    7 1
    10    5    6 ar
    11    5   38 1
    12    6   39 1
    13    7    8 2
    14    7   40 1
    15    8    9 1
    16    8   41 1
    17    9   10 2
    18    9   11 am
    19   11   12 1
    20   11   42 1
    21   12   16 2
    22   12   13 1
    23   13   14 2
    24   14   15 1
    25   14   21 1
    26   15   16 1
    27   15   17 1
    28   17   18 1
    29   17   29 1
    30   17   19 1
    31   19   20 1
    32   19   43 1
    33   19   44 1
    34   20   21 2
    35   20   22 1
    36   22   27 ar
    37   22   23 ar
    38   23   24 ar
    39   23   45 1
    40   24   25 ar
    41   24   46 1
    42   25   26 ar
    43   25   28 1
    44   26   27 ar
    45   26   47 1
    46   27   48 1
    47   29   34 ar
    48   29   30 ar
    49   30   31 ar
    50   30   49 1
    51   31   32 ar
    52   31   50 1
    53   32   33 ar
    54   32   51 1
    55   33   34 ar
    56   33   52 1
    57   34   53 1
@<TRIPOS>MOLECULE
ZINC08903365
   61    64     0     0     0
SMALL
USER_CHARGES
(5R)-3-hydroxy-5-(4-isopropylphenyl)-4-(4-propoxybenzoyl)-1-(2-pyridyl)-5H-pyrrol-2-one
@<TRIPOS>ATOM
      1 C1         -4.5503   -4.9345    2.2374 C.3       1 <0>        -0.1516
      2 C2         -4.5691   -3.5121    2.8009 C.3       1 <0>        -0.1240
      3 C3         -3.1913   -3.1717    3.3726 C.3       1 <0>         0.0549
      4 O1         -3.2089   -1.8433    3.8988 O.3       1 <0>        -0.3163
      5 C4         -2.0564   -1.3827    4.4474 C.ar      1 <0>         0.1424
      6 C5         -0.9310   -2.1985    4.4830 C.ar      1 <0>        -0.2245
      7 C6          0.2418   -1.7331    5.0335 C.ar      1 <0>        -0.0260
      8 C7          0.2971   -0.4420    5.5673 C.ar      1 <0>        -0.1735
      9 C8         -0.8386    0.3731    5.5347 C.ar      1 <0>        -0.0333
     10 C9         -2.0058   -0.0982    4.9776 C.ar      1 <0>        -0.1671
     11 C10         1.5510    0.0594    6.1632 C.2       1 <0>         0.5104
     12 O2          1.6187    1.2071    6.5626 O.2       1 <0>        -0.4721
     13 C11         2.7150   -0.8251    6.2740 C.2       1 <0>        -0.4956
     14 C12         3.2672   -1.2937    7.4177 C.2       1 <0>         0.2670
     15 C13         4.4211   -2.1532    7.0831 C.2       1 <0>         0.5072
     16 O3          5.1231   -2.7246    7.8937 O.2       1 <0>        -0.4760
     17 N1          4.5825   -2.2067    5.7485 N.am      1 <0>        -0.5481
     18 C14         3.5337   -1.3843    5.1338 C.3       1 <0>         0.2674
     19 H1          2.9292   -1.9966    4.4485 H         1 <0>         0.0755
     20 C15         4.1518   -0.2620    4.3405 C.ar      1 <0>        -0.0790
     21 C16         5.3190    0.3340    4.7800 C.ar      1 <0>        -0.0892
     22 C17         5.8886    1.3602    4.0497 C.ar      1 <0>        -0.1112
     23 C18         5.2852    1.7975    2.8853 C.ar      1 <0>        -0.0857
     24 C19         4.1152    1.2050    2.4486 C.ar      1 <0>        -0.1166
     25 C20         3.5485    0.1752    3.1761 C.ar      1 <0>        -0.1119
     26 C21         5.9028    2.9204    2.0924 C.3       1 <0>        -0.0533
     27 C22         5.9811    4.1763    2.9628 C.3       1 <0>        -0.1456
     28 C23         7.3110    2.5179    1.6499 C.3       1 <0>        -0.1433
     29 C24         5.5696   -2.9172    5.0703 C.ar      1 <0>         0.3968
     30 C25         5.6752   -2.8018    3.6883 C.ar      1 <0>        -0.2064
     31 C26         6.6638   -3.5092    3.0276 C.ar      1 <0>        -0.0476
     32 C27         7.5096   -4.3193    3.7734 C.ar      1 <0>        -0.2215
     33 C28         7.3443   -4.3903    5.1425 C.ar      1 <0>         0.1345
     34 N2          6.3956   -3.7003    5.7461 N.ar      1 <0>        -0.4971
     35 O4          2.8301   -1.0203    8.6686 O.3       1 <0>        -0.6453
     36 H2         -5.5409   -5.1792    1.8264 H         1 <0>         0.0634
     37 H3         -4.3011   -5.6437    3.0404 H         1 <0>         0.0585
     38 H4         -3.7954   -5.0031    1.4403 H         1 <0>         0.0580
     39 H5         -4.8183   -2.8029    1.9979 H         1 <0>         0.0729
     40 H6         -5.3240   -3.4434    3.5980 H         1 <0>         0.0732
     41 H7         -2.9421   -3.8809    4.1757 H         1 <0>         0.0637
     42 H8         -2.4364   -3.2404    2.5755 H         1 <0>         0.0631
     43 H9         -0.9758   -3.1973    4.0744 H         1 <0>         0.1271
     44 H10         1.1167   -2.3658    5.0567 H         1 <0>         0.1347
     45 H11        -0.7999    1.3711    5.9456 H         1 <0>         0.1370
     46 H12        -2.8835    0.5307    4.9520 H         1 <0>         0.1300
     47 H13         5.7880   -0.0046    5.6920 H         1 <0>         0.1120
     48 H14         6.8025    1.8234    4.3911 H         1 <0>         0.1149
     49 H15         3.6436    1.5468    1.5391 H         1 <0>         0.1168
     50 H16         2.6341   -0.2875    2.8350 H         1 <0>         0.1196
     51 H17         5.2750    3.1151    1.2104 H         1 <0>         0.0741
     52 H18         6.4319    4.9960    2.3841 H         1 <0>         0.0540
     53 H19         6.5991    3.9702    3.8492 H         1 <0>         0.0571
     54 H20         4.9686    4.4656    3.2809 H         1 <0>         0.0575
     55 H21         7.7618    3.3376    1.0711 H         1 <0>         0.0540
     56 H22         7.2546    1.6150    1.0242 H         1 <0>         0.0547
     57 H23         7.9290    2.3118    2.5363 H         1 <0>         0.0565
     58 H24         4.9972   -2.1656    3.1387 H         1 <0>         0.1364
     59 H25         6.7721   -3.4367    1.9555 H         1 <0>         0.1320
     60 H26         8.2890   -4.8877    3.2878 H         1 <0>         0.1299
     61 H27         7.9999   -5.0191    5.7267 H         1 <0>         0.1545
@<TRIPOS>BOND
     1    1    2 1
     2    1   36 1
     3    1   37 1
     4    1   38 1
     5    2    3 1
     6    2   39 1
     7    2   40 1
     8    3    4 1
     9    3   41 1
    10    3   42 1
    11    4    5 1
    12    5   10 ar
    13    5    6 ar
    14    6    7 ar
    15    6   43 1
    16    7    8 ar
    17    7   44 1
    18    8    9 ar
    19    8   11 1
    20    9   10 ar
    21    9   45 1
    22   10   46 1
    23   11   12 2
    24   11   13 1
    25   13   18 1
    26   13   14 2
    27   14   15 1
    28   14   35 1
    29   15   16 2
    30   15   17 am
    31   17   18 1
    32   17   29 1
    33   18   19 1
    34   18   20 1
    35   20   25 ar
    36   20   21 ar
    37   21   22 ar
    38   21   47 1
    39   22   23 ar
    40   22   48 1
    41   23   24 ar
    42   23   26 1
    43   24   25 ar
    44   24   49 1
    45   25   50 1
    46   26   27 1
    47   26   28 1
    48   26   51 1
    49   27   52 1
    50   27   53 1
    51   27   54 1
    52   28   55 1
    53   28   56 1
    54   28   57 1
    55   29   34 ar
    56   29   30 ar
    57   30   31 ar
    58   30   58 1
    59   31   32 ar
    60   31   59 1
    61   32   33 ar
    62   32   60 1
    63   33   34 ar
    64   33   61 1
@<TRIPOS>MOLECULE
ZINC35421516
   52    56     0     0     0
SMALL
USER_CHARGES

@<TRIPOS>ATOM
      1 C1         -0.0184    1.5028    0.0103 C.3       1 <0>        -0.1077
      2 C2          0.0021   -0.0041    0.0020 C.ar      1 <0>        -0.0859
      3 C3          0.0060   -0.6984   -1.1994 C.ar      1 <0>        -0.1064
      4 C4          0.0249   -2.0680   -1.2350 C.ar      1 <0>        -0.0716
      5 C5          0.0407   -2.8218   -0.0384 C.ar      1 <0>         0.1132
      6 C6          0.0362   -2.0811    1.1658 C.ar      1 <0>        -0.1716
      7 C7          0.0229   -0.7088    1.1915 C.ar      1 <0>        -0.0567
      8 S1          0.0599   -3.3614    2.3974 S.3       1 <0>         0.0458
      9 C8          0.0738   -4.7523    1.2750 C.2       1 <0>         0.4099
     10 N1          0.0600   -4.1647    0.1009 N.2       1 <0>        -0.5455
     11 N2          0.0944   -6.1043    1.5687 N.am      1 <0>        -0.5042
     12 C9          0.1108   -7.2001    0.5925 C.3       1 <0>         0.2563
     13 H1          1.0035   -7.1347   -0.0296 H         1 <0>         0.0920
     14 C10         0.1304   -8.4791    1.3967 C.2       1 <0>        -0.4669
     15 C11         0.1253   -8.1197    2.7015 C.2       1 <0>         0.2859
     16 C12         0.1089   -6.6471    2.7996 C.2       1 <0>         0.5104
     17 O1          0.1058   -6.0177    3.8391 O.2       1 <0>        -0.4808
     18 O2          0.1381   -8.9752    3.7505 O.3       1 <0>        -0.5894
     19 C13         0.1506   -9.8471    0.8655 C.2       1 <0>         0.4492
     20 O3          0.1653  -10.7969    1.6287 O.2       1 <0>        -0.4845
     21 C14         0.1531  -10.0706   -0.5811 C.2       1 <0>        -0.1865
     22 C15         0.1717  -11.3296   -1.0699 C.2       1 <0>        -0.0754
     23 C16         0.1743  -11.5541   -2.5236 C.ar      1 <0>        -0.0523
     24 C17         0.1633  -10.4662   -3.4033 C.ar      1 <0>        -0.1106
     25 C18         0.1657  -10.6851   -4.7645 C.ar      1 <0>        -0.1198
     26 C19         0.1785  -11.9770   -5.2614 C.ar      1 <0>        -0.1236
     27 C20         0.1895  -13.0587   -4.3978 C.ar      1 <0>        -0.1220
     28 C21         0.1935  -12.8567   -3.0340 C.ar      1 <0>        -0.1064
     29 C22        -1.1252   -7.1463   -0.2680 C.ar      1 <0>        -0.0693
     30 C23        -2.3462   -6.8269    0.2962 C.ar      1 <0>        -0.0696
     31 C24        -3.4802   -6.7768   -0.4921 C.ar      1 <0>        -0.1480
     32 C25        -3.3932   -7.0465   -1.8473 C.ar      1 <0>         0.0894
     33 C26        -2.1697   -7.3663   -2.4113 C.ar      1 <0>        -0.1479
     34 C27        -1.0361   -7.4107   -1.6220 C.ar      1 <0>        -0.0802
     35 F1         -4.5012   -6.9983   -2.6188 F         1 <0>        -0.1457
     36 H2          1.0042    1.8801    0.0026 H         1 <0>         0.0709
     37 H3         -0.5455    1.8639   -0.8728 H         1 <0>         0.0679
     38 H4         -0.5286    1.8543    0.9071 H         1 <0>         0.0666
     39 H5         -0.0066   -0.1465   -2.1277 H         1 <0>         0.1287
     40 H6          0.0274   -2.5775   -2.1873 H         1 <0>         0.1300
     41 H7          0.0243   -0.1829    2.1348 H         1 <0>         0.1286
     42 H8          0.1402   -9.2288   -1.2575 H         1 <0>         0.1244
     43 H9          0.1847  -12.1714   -0.3935 H         1 <0>         0.1311
     44 H10         0.1525   -9.4577   -3.0171 H         1 <0>         0.1256
     45 H11         0.1572   -9.8464   -5.4449 H         1 <0>         0.1219
     46 H12         0.1796  -12.1419   -6.3288 H         1 <0>         0.1188
     47 H13         0.1994  -14.0636   -4.7934 H         1 <0>         0.1209
     48 H14         0.2065  -13.7016   -2.3615 H         1 <0>         0.1252
     49 H15        -2.4139   -6.6169    1.3534 H         1 <0>         0.1213
     50 H16        -4.4341   -6.5276   -0.0510 H         1 <0>         0.1306
     51 H17        -2.1007   -7.5772   -3.4682 H         1 <0>         0.1327
     52 H18        -0.0810   -7.6556   -2.0625 H         1 <0>         0.1313
@<TRIPOS>BOND
     1    1    2 1
     2    1   36 1
     3    1   37 1
     4    1   38 1
     5    2    7 ar
     6    2    3 ar
     7    3    4 ar
     8    3   39 1
     9    4    5 ar
    10    4   40 1
    11    5   10 1
    12    5    6 ar
    13    6    7 ar
    14    6    8 1
    15    7   41 1
    16    8    9 1
    17    9   10 2
    18    9   11 1
    19   11   16 am
    20   11   12 1
    21   12   13 1
    22   12   14 1
    23   12   29 1
    24   14   15 2
    25   14   19 1
    26   15   16 1
    27   15   18 1
    28   16   17 2
    29   19   20 2
    30   19   21 1
    31   21   22 2
    32   21   42 1
    33   22   23 1
    34   22   43 1
    35   23   28 ar
    36   23   24 ar
    37   24   25 ar
    38   24   44 1
    39   25   26 ar
    40   25   45 1
    41   26   27 ar
    42   26   46 1
    43   27   28 ar
    44   27   47 1
    45   28   48 1
    46   29   34 ar
    47   29   30 ar
    48   30   31 ar
    49   30   49 1
    50   31   32 ar
    51   31   50 1
    52   32   33 ar
    53   32   35 1
    54   33   34 ar
    55   33   51 1
    56   34   52 1
@<TRIPOS>MOLECULE
ZINC38623319
   60    62     0     0     0
SMALL
USER_CHARGES

@<TRIPOS>ATOM
      1 C1         -1.0101    0.9702    0.7019 C.3       1 <0>        -0.1346
      2 C2         -0.6579   -0.4944    0.6572 C.2       1 <0>         0.1396
      3 C3         -0.9264   -1.2518   -0.4769 C.2       1 <0>        -0.3095
      4 C4         -0.5684   -2.6713   -0.4791 C.2       1 <0>         0.5693
      5 O1         -0.7934   -3.3556   -1.4614 O.2       1 <0>        -0.5516
      6 N1          0.0101   -3.2190    0.6060 N.am      1 <0>        -0.5197
      7 C5          0.2708   -2.4798    1.7095 C.2       1 <0>         0.5278
      8 C6         -0.0461   -1.1177    1.7612 C.2       1 <0>        -0.4121
      9 C7          0.2536   -0.3426    2.9648 C.2       1 <0>         0.4609
     10 O2         -0.3450   -0.5679    3.9964 O.2       1 <0>        -0.4370
     11 C8          1.3055    0.7358    2.9242 C.3       1 <0>         0.0410
     12 H1          1.2080    1.3038    1.9990 H         1 <0>         0.0942
     13 C9          2.6940    0.0963    2.9861 C.3       1 <0>        -0.1625
     14 O3          1.1339    1.6109    4.0408 O.3       1 <0>        -0.2925
     15 C10         1.6269    2.8714    3.9183 C.ar      1 <0>         0.1345
     16 C11         2.3036    3.2438    2.7659 C.ar      1 <0>        -0.2103
     17 C12         2.8035    4.5258    2.6435 C.ar      1 <0>        -0.0758
     18 C13         2.6302    5.4373    3.6686 C.ar      1 <0>        -0.1238
     19 C14         1.9566    5.0685    4.8184 C.ar      1 <0>        -0.0754
     20 C15         1.4494    3.7896    4.9430 C.ar      1 <0>        -0.1522
     21 C16         3.1770    6.8351    3.5328 C.3       1 <0>        -0.0507
     22 C17         2.0299    7.8430    3.6290 C.3       1 <0>        -0.1444
     23 C18         4.1840    7.1000    4.6537 C.3       1 <0>        -0.1441
     24 O4          0.8504   -3.0641    2.7745 O.3       1 <0>        -0.6278
     25 C19         0.3635   -4.6407    0.5925 C.3       1 <0>         0.1753
     26 H2         -0.0223   -5.1196    1.4925 H         1 <0>         0.0929
     27 C20        -0.2482   -5.3066   -0.6417 C.3       1 <0>        -0.1286
     28 C21         1.8630   -4.7852    0.5501 C.ar      1 <0>        -0.0680
     29 C22         2.6189   -3.9226   -0.2216 C.ar      1 <0>        -0.1013
     30 C23         3.9943   -4.0552   -0.2605 C.ar      1 <0>        -0.1215
     31 C24         4.6138   -5.0501    0.4725 C.ar      1 <0>        -0.1275
     32 C25         3.8580   -5.9121    1.2448 C.ar      1 <0>        -0.1227
     33 C26         2.4829   -5.7768    1.2871 C.ar      1 <0>        -0.0990
     34 C27        -1.5428   -0.6541   -1.6229 C.1       1 <0>         0.3141
     35 N2         -2.0318   -0.1799   -2.5321 N.1       1 <0>        -0.4925
     36 H3         -0.1481    1.5608    0.3917 H         1 <0>         0.0816
     37 H4         -1.8447    1.1639    0.0282 H         1 <0>         0.0736
     38 H5         -1.2921    1.2452    1.7183 H         1 <0>         0.0723
     39 H6          2.8588   -0.5020    2.0901 H         1 <0>         0.0808
     40 H7          3.4516    0.8778    3.0456 H         1 <0>         0.0656
     41 H8          2.7610   -0.5424    3.8669 H         1 <0>         0.0722
     42 H9          2.4398    2.5319    1.9652 H         1 <0>         0.1310
     43 H10         3.3303    4.8162    1.7466 H         1 <0>         0.1214
     44 H11         1.8228    5.7822    5.6178 H         1 <0>         0.1242
     45 H12         0.9195    3.5033    5.8394 H         1 <0>         0.1294
     46 H13         3.6722    6.9393    2.5674 H         1 <0>         0.0742
     47 H14         1.5347    7.7388    4.5944 H         1 <0>         0.0559
     48 H15         2.4254    8.8540    3.5307 H         1 <0>         0.0545
     49 H16         1.3125    7.6543    2.8304 H         1 <0>         0.0558
     50 H17         5.0012    6.3819    4.5852 H         1 <0>         0.0552
     51 H18         4.5795    8.1110    4.5555 H         1 <0>         0.0544
     52 H19         3.6888    6.9958    5.6191 H         1 <0>         0.0558
     53 H20         0.2520   -4.9396   -1.5380 H         1 <0>         0.0809
     54 H21        -0.1220   -6.3870   -0.5718 H         1 <0>         0.0386
     55 H22        -1.3103   -5.0675   -0.6947 H         1 <0>         0.0731
     56 H23         2.1349   -3.1454   -0.7942 H         1 <0>         0.1157
     57 H24         4.5849   -3.3817   -0.8639 H         1 <0>         0.1170
     58 H25         5.6884   -5.1541    0.4415 H         1 <0>         0.1156
     59 H26         4.3420   -6.6896    1.8173 H         1 <0>         0.1175
     60 H27         1.8927   -6.4479    1.8935 H         1 <0>         0.1193
@<TRIPOS>BOND
     1    1    2 1
     2    1   36 1
     3    1   37 1
     4    1   38 1
     5    2    8 1
     6    2    3 2
     7    3    4 1
     8    3   34 1
     9    4    5 2
    10    4    6 am
    11    6    7 1
    12    6   25 1
    13    7    8 2
    14    7   24 1
    15    8    9 1
    16    9   10 2
    17    9   11 1
    18   11   12 1
    19   11   13 1
    20   11   14 1
    21   13   39 1
    22   13   40 1
    23   13   41 1
    24   14   15 1
    25   15   20 ar
    26   15   16 ar
    27   16   17 ar
    28   16   42 1
    29   17   18 ar
    30   17   43 1
    31   18   19 ar
    32   18   21 1
    33   19   20 ar
    34   19   44 1
    35   20   45 1
    36   21   22 1
    37   21   23 1
    38   21   46 1
    39   22   47 1
    40   22   48 1
    41   22   49 1
    42   23   50 1
    43   23   51 1
    44   23   52 1
    45   25   26 1
    46   25   27 1
    47   25   28 1
    48   27   53 1
    49   27   54 1
    50   27   55 1
    51   28   33 ar
    52   28   29 ar
    53   29   30 ar
    54   29   56 1
    55   30   31 ar
    56   30   57 1
    57   31   32 ar
    58   31   58 1
    59   32   33 ar
    60   32   59 1
    61   33   60 1
    62   34   35 3
@<TRIPOS>MOLECULE
ZINC43742852
   69    72     0     0     0
SMALL
USER_CHARGES

@<TRIPOS>ATOM
      1 C1         -0.3361    1.3400    0.5472 C.3       1 <0>        -0.1521
      2 C2         -0.1510   -0.1754    0.4466 C.3       1 <0>        -0.0864
      3 H1          0.1467   -0.4385   -0.5684 H         1 <0>         0.0669
      4 C3         -1.4685   -0.8739    0.7889 C.3       1 <0>        -0.0863
      5 C4         -2.5204   -0.5238   -0.2655 C.3       1 <0>        -0.1827
      6 C5         -3.8181   -1.2118    0.0717 C.2       1 <0>         0.4868
      7 O1         -3.8945   -1.9169    1.0634 O.co2     1 <0>        -0.7002
      8 O2         -4.7915   -1.0634   -0.6473 O.co2     1 <0>        -0.7113
      9 C6          0.9336   -0.6230    1.4285 C.3       1 <0>        -0.0756
     10 H2          0.6324   -0.4083    2.4538 H         1 <0>         0.0690
     11 C7          1.2338   -2.1280    1.2556 C.3       1 <0>        -0.1200
     12 C8          2.7531   -2.2971    1.4587 C.3       1 <0>        -0.1164
     13 C9          3.2972   -0.8926    1.7517 C.3       1 <0>        -0.0720
     14 H3          3.2832   -0.7316    2.8296 H         1 <0>         0.0642
     15 C10         2.2884    0.0712    1.1001 C.3       1 <0>        -0.0482
     16 C11         2.4362    0.0420   -0.4235 C.3       1 <0>        -0.1096
     17 C12         3.8740    0.3592   -0.8238 C.3       1 <0>        -0.1151
     18 C13         4.7988   -0.7254   -0.2588 C.3       1 <0>        -0.0639
     19 H4          4.4755   -1.7011   -0.6215 H         1 <0>         0.0715
     20 C14         4.7109   -0.7014    1.2504 C.3       1 <0>        -0.0639
     21 H5          5.0938    0.2531    1.6115 H         1 <0>         0.0676
     22 C15         5.6047   -1.8212    1.7975 C.3       1 <0>        -0.0887
     23 C16         6.9935   -1.6589    1.2533 C.2       1 <0>        -0.1422
     24 C17         7.2478   -1.0672    0.1236 C.2       1 <0>        -0.1065
     25 C18         6.2211   -0.4604   -0.7241 C.3       1 <0>        -0.0153
     26 C19         6.4141   -0.9842   -2.1501 C.3       1 <0>        -0.1043
     27 C20         7.8529   -0.7178   -2.5972 C.3       1 <0>        -0.1190
     28 C21         8.8235   -1.4865   -1.6991 C.3       1 <0>         0.0944
     29 H6          8.5745   -2.5475   -1.7194 H         1 <0>         0.0840
     30 C22         8.6944   -0.9731   -0.3319 C.3       1 <0>        -0.1026
     31 O3         10.1589   -1.3017   -2.1731 O.3       1 <0>        -0.3493
     32 C23        11.0258   -2.3039   -1.9586 C.2       1 <0>         0.4559
     33 O4         10.6629   -3.3048   -1.3875 O.2       1 <0>        -0.5108
     34 C24        12.4518   -2.1805   -2.4303 C.3       1 <0>        -0.1477
     35 C25         6.4379    1.0538   -0.7566 C.3       1 <0>        -0.1458
     36 C26         2.3757    1.4863    1.6753 C.3       1 <0>        -0.1422
     37 H7          0.5018    1.8414    0.0628 H         1 <0>         0.0541
     38 H8         -1.2651    1.6261    0.0540 H         1 <0>         0.0565
     39 H9         -0.3769    1.6322    1.5966 H         1 <0>         0.0502
     40 H10        -1.3144   -1.9529    0.8041 H         1 <0>         0.0578
     41 H11        -1.8118   -0.5421    1.7688 H         1 <0>         0.0548
     42 H12        -2.6745    0.5552   -0.2807 H         1 <0>         0.0565
     43 H13        -2.1771   -0.8556   -1.2454 H         1 <0>         0.0516
     44 H14         0.6901   -2.7059    2.0029 H         1 <0>         0.0624
     45 H15         0.9522   -2.4527    0.2539 H         1 <0>         0.0642
     46 H16         2.9480   -2.9591    2.3025 H         1 <0>         0.0580
     47 H17         3.2111   -2.6963    0.5537 H         1 <0>         0.0619
     48 H18         2.1691   -0.9481   -0.7929 H         1 <0>         0.0653
     49 H19         1.7675    0.7811   -0.8649 H         1 <0>         0.0664
     50 H20         3.9546    0.3777   -1.9106 H         1 <0>         0.0588
     51 H21         4.1599    1.3299   -0.4186 H         1 <0>         0.0673
     52 H22         5.6317   -1.7661    2.8858 H         1 <0>         0.0685
     53 H23         5.2048   -2.7880    1.4917 H         1 <0>         0.0778
     54 H24         7.8204   -2.0513    1.8266 H         1 <0>         0.1014
     55 H25         6.2185   -2.0563   -2.1734 H         1 <0>         0.0653
     56 H26         5.7240   -0.4734   -2.8216 H         1 <0>         0.0769
     57 H27         7.9781   -1.0445   -3.6295 H         1 <0>         0.0701
     58 H28         8.0625    0.3496   -2.5275 H         1 <0>         0.0790
     59 H29         9.0225    0.0659   -0.3006 H         1 <0>         0.0809
     60 H30         9.3249   -1.5777    0.3200 H         1 <0>         0.0680
     61 H31        12.9198   -1.3205   -1.9514 H         1 <0>         0.0996
     62 H32        13.0005   -3.0853   -2.1688 H         1 <0>         0.1004
     63 H33        12.4664   -2.0466   -3.5120 H         1 <0>         0.0999
     64 H34         6.2875    1.4639    0.2421 H         1 <0>         0.0551
     65 H35         7.4539    1.2683   -1.0882 H         1 <0>         0.0534
     66 H36         5.7269    1.5079   -1.4467 H         1 <0>         0.0656
     67 H37         2.1314    1.4624    2.7374 H         1 <0>         0.0516
     68 H38         3.3873    1.8703    1.5437 H         1 <0>         0.0489
     69 H39         1.6705    2.1342    1.1548 H         1 <0>         0.0695
@<TRIPOS>BOND
     1    1    2 1
     2    1   37 1
     3    1   38 1
     4    1   39 1
     5    2    3 1
     6    2    4 1
     7    2    9 1
     8    4    5 1
     9    4   40 1
    10    4   41 1
    11    5    6 1
    12    5   42 1
    13    5   43 1
    14    6    7 2
    15    6    8 1
    16    9   10 1
    17    9   15 1
    18    9   11 1
    19   11   12 1
    20   11   44 1
    21   11   45 1
    22   12   13 1
    23   12   46 1
    24   12   47 1
    25   13   14 1
    26   13   20 1
    27   13   15 1
    28   15   16 1
    29   15   36 1
    30   16   17 1
    31   16   48 1
    32   16   49 1
    33   17   18 1
    34   17   50 1
    35   17   51 1
    36   18   19 1
    37   18   25 1
    38   18   20 1
    39   20   21 1
    40   20   22 1
    41   22   23 1
    42   22   52 1
    43   22   53 1
    44   23   24 2
    45   23   54 1
    46   24   30 1
    47   24   25 1
    48   25   26 1
    49   25   35 1
    50   26   27 1
    51   26   55 1
    52   26   56 1
    53   27   28 1
    54   27   57 1
    55   27   58 1
    56   28   29 1
    57   28   30 1
    58   28   31 1
    59   30   59 1
    60   30   60 1
    61   31   32 1
    62   32   33 2
    63   32   34 1
    64   34   61 1
    65   34   62 1
    66   34   63 1
    67   35   64 1
    68   35   65 1
    69   35   66 1
    70   36   67 1
    71   36   68 1
    72   36   69 1
@<TRIPOS>MOLECULE
ZINC59387215
   37    39     0     0     0
SMALL
USER_CHARGES

@<TRIPOS>ATOM
      1 C1         -0.0157    1.3058    0.0092 C.2       1 <0>        -0.1563
      2 C2          0.0021   -0.0041    0.0020 C.2       1 <0>        -0.1515
      3 C3          1.3172   -0.7397   -0.0145 C.3       1 <0>        -0.0808
      4 S1          1.5068   -1.6740    1.5288 S.3       1 <0>         0.0248
      5 C4          3.0707   -2.4675    1.3573 C.2       1 <0>         0.0975
      6 N1          3.9214   -2.4055    0.3568 N.2       1 <0>        -0.4926
      7 C5          5.0954   -3.0724    0.3602 C.ar      1 <0>         0.0462
      8 C6          6.0903   -3.0891   -0.6471 C.ar      1 <0>        -0.0366
      9 C7          7.2267   -3.8156   -0.4971 C.ar      1 <0>        -0.1559
     10 C8          7.4619   -4.5758    0.6562 C.ar      1 <0>         0.1475
     11 C9          6.5004   -4.5819    1.6715 C.ar      1 <0>        -0.0717
     12 C10         5.3554   -3.8476    1.5152 C.ar      1 <0>        -0.1148
     13 S2          3.9075   -3.5548    2.5026 S.3       1 <0>         0.0367
     14 N2          8.6140   -5.3011    0.7867 N.2       1 <0>        -0.4556
     15 C11         9.0474   -6.0213   -0.2100 C.2       1 <0>         0.2427
     16 C12        10.2860   -6.8012   -0.0698 C.ar      1 <0>        -0.2191
     17 C13        10.7578   -7.5707   -1.1383 C.ar      1 <0>         0.0414
     18 C14        11.9193   -8.2992   -1.0000 C.ar      1 <0>        -0.1814
     19 C15        12.6227   -8.2738    0.1931 C.ar      1 <0>         0.0241
     20 C16        12.1680   -7.5182    1.2575 C.ar      1 <0>        -0.2063
     21 C17        11.0049   -6.7734    1.1347 C.ar      1 <0>         0.3353
     22 O1         10.5604   -6.0261    2.1770 O.3       1 <0>        -0.5761
     23 Br1        13.1378   -7.4940    2.8807 Br        1 <0>        -0.0572
     24 N3         12.4174   -9.1131   -2.1317 N.pl3     1 <0>         0.0714
     25 O2         11.8055   -9.1377   -3.1741 O.2       1 <0>        -0.2119
     26 O3         13.4361   -9.7534   -2.0135 O.3       1 <0>        -0.2110
     27 H1          0.9122    1.8585    0.0033 H         1 <0>         0.1018
     28 H2         -0.9582    1.8330    0.0166 H         1 <0>         0.1079
     29 H3         -0.9258   -0.5567    0.0079 H         1 <0>         0.1218
     30 H4          1.3385   -1.4270   -0.8602 H         1 <0>         0.1042
     31 H5          2.1332   -0.0231   -0.1080 H         1 <0>         0.0987
     32 H6          5.9423   -2.5146   -1.5495 H         1 <0>         0.1303
     33 H7          7.9661   -3.8078   -1.2843 H         1 <0>         0.1335
     34 H8          6.6591   -5.1604    2.5696 H         1 <0>         0.1408
     35 H9          8.4966   -6.0451   -1.1387 H         1 <0>         0.0989
     36 H10        10.2125   -7.5942   -2.0702 H         1 <0>         0.1371
     37 H11        13.5319   -8.8483    0.2923 H         1 <0>         0.1363
@<TRIPOS>BOND
     1    1    2 2
     2    1   27 1
     3    1   28 1
     4    2    3 1
     5    2   29 1
     6    3    4 1
     7    3   30 1
     8    3   31 1
     9    4    5 1
    10    5   13 1
    11    5    6 2
    12    6    7 1
    13    7   12 ar
    14    7    8 ar
    15    8    9 ar
    16    8   32 1
    17    9   10 ar
    18    9   33 1
    19   10   11 ar
    20   10   14 1
    21   11   12 ar
    22   11   34 1
    23   12   13 1
    24   14   15 2
    25   15   16 1
    26   15   35 1
    27   16   21 ar
    28   16   17 ar
    29   17   18 ar
    30   17   36 1
    31   18   19 ar
    32   18   24 1
    33   19   20 ar
    34   19   37 1
    35   20   21 ar
    36   20   23 1
    37   21   22 1
    38   24   25 2
    39   24   26 1
@<TRIPOS>MOLECULE
ZINC05867251
   52    54     0     0     0
SMALL
USER_CHARGES
hexyl 4-(8-quinolylsulfonylamino)benzoate
@<TRIPOS>ATOM
      1 C1         -9.1388   11.4586   -0.3361 C.3       1 <0>        -0.1548
      2 C2         -7.7721   11.7865   -0.9405 C.3       1 <0>        -0.1264
      3 C3         -6.8268   10.6008   -0.7372 C.3       1 <0>        -0.1200
      4 C4         -5.4600   10.9287   -1.3417 C.3       1 <0>        -0.1179
      5 C5         -4.5147    9.7430   -1.1383 C.3       1 <0>        -0.1207
      6 C6         -3.1480   10.0709   -1.7428 C.3       1 <0>         0.0659
      7 O1         -2.2508    8.9457   -1.5499 O.3       1 <0>        -0.3577
      8 C7         -0.9974    9.0735   -2.0281 C.2       1 <0>         0.5188
      9 O2         -0.6634   10.0973   -2.5911 O.2       1 <0>        -0.5364
     10 C8         -0.0318    7.9716   -1.8685 C.ar      1 <0>        -0.2237
     11 C9          1.2694    8.1026   -2.3643 C.ar      1 <0>        -0.0279
     12 C10         2.1653    7.0757   -2.2137 C.ar      1 <0>        -0.1800
     13 C11         1.7811    5.9035   -1.5680 C.ar      1 <0>         0.2802
     14 C12         0.4849    5.7677   -1.0779 C.ar      1 <0>        -0.2434
     15 C13        -0.4145    6.7928   -1.2205 C.ar      1 <0>        -0.0274
     16 N1          2.6918    4.8641   -1.4174 N.2       1 <0>        -1.0529
     17 S1          2.8448    4.1027    0.0452 S.o2      1 <0>         2.6072
     18 O3          3.9120    3.1742   -0.0900 O.2       1 <0>        -0.9754
     19 O4          1.5369    3.7084    0.4366 O.2       1 <0>        -1.0414
     20 C14         3.3754    5.3136    1.2100 C.ar      1 <0>        -0.6317
     21 C15         2.5626    5.6718    2.2412 C.ar      1 <0>        -0.0084
     22 C16         2.9624    6.6270    3.1733 C.ar      1 <0>        -0.1382
     23 C17         4.1773    7.2341    3.0745 C.ar      1 <0>        -0.0666
     24 C18         5.0438    6.8854    2.0264 C.ar      1 <0>        -0.1243
     25 C19         4.6396    5.9137    1.0774 C.ar      1 <0>         0.2015
     26 N2          5.4594    5.5816    0.0750 N.ar      1 <0>        -0.4441
     27 C20         6.6391    6.1384   -0.0534 C.ar      1 <0>         0.1374
     28 C21         7.0976    7.1001    0.8445 C.ar      1 <0>        -0.1838
     29 C22         6.3103    7.4852    1.8919 C.ar      1 <0>        -0.0592
     30 H1         -9.8184   12.3111   -0.4823 H         1 <0>         0.0523
     31 H2         -9.0258   11.2601    0.7399 H         1 <0>         0.0538
     32 H3         -9.5548   10.5689   -0.8314 H         1 <0>         0.0540
     33 H4         -7.8851   11.9850   -2.0165 H         1 <0>         0.0610
     34 H5         -7.3561   12.6762   -0.4452 H         1 <0>         0.0609
     35 H6         -6.7138   10.4023    0.3388 H         1 <0>         0.0636
     36 H7         -7.2428    9.7110   -1.2324 H         1 <0>         0.0639
     37 H8         -5.5731   11.1271   -2.4177 H         1 <0>         0.0650
     38 H9         -5.0440   11.8185   -0.8465 H         1 <0>         0.0647
     39 H10        -4.4017    9.5446   -0.0623 H         1 <0>         0.0740
     40 H11        -4.9307    8.8532   -1.6335 H         1 <0>         0.0745
     41 H12        -3.2611   10.2694   -2.8188 H         1 <0>         0.0658
     42 H13        -2.7319   10.9607   -1.2476 H         1 <0>         0.0653
     43 H14         1.5682    9.0117   -2.8649 H         1 <0>         0.1176
     44 H15         3.1704    7.1764   -2.5960 H         1 <0>         0.1194
     45 H16         0.1888    4.8555   -0.5812 H         1 <0>         0.1461
     46 H17        -1.4184    6.6886   -0.8361 H         1 <0>         0.1180
     47 H18         1.5923    5.2078    2.3388 H         1 <0>         0.1436
     48 H19         2.2981    6.8927    3.9824 H         1 <0>         0.1296
     49 H20         4.4740    7.9766    3.8005 H         1 <0>         0.1289
     50 H21         7.2728    5.8434   -0.8767 H         1 <0>         0.1600
     51 H22         8.0750    7.5404    0.7126 H         1 <0>         0.1348
     52 H23         6.6497    8.2295    2.5971 H         1 <0>         0.1343
@<TRIPOS>BOND
     1    1    2 1
     2    1   30 1
     3    1   31 1
     4    1   32 1
     5    2    3 1
     6    2   33 1
     7    2   34 1
     8    3    4 1
     9    3   35 1
    10    3   36 1
    11    4    5 1
    12    4   37 1
    13    4   38 1
    14    5    6 1
    15    5   39 1
    16    5   40 1
    17    6    7 1
    18    6   41 1
    19    6   42 1
    20    7    8 1
    21    8    9 2
    22    8   10 1
    23   10   15 ar
    24   10   11 ar
    25   11   12 ar
    26   11   43 1
    27   12   13 ar
    28   12   44 1
    29   13   14 ar
    30   13   16 1
    31   14   15 ar
    32   14   45 1
    33   15   46 1
    34   16   17 1
    35   17   18 2
    36   17   19 2
    37   17   20 1
    38   20   25 ar
    39   20   21 ar
    40   21   22 ar
    41   21   47 1
    42   22   23 ar
    43   22   48 1
    44   23   24 ar
    45   23   49 1
    46   24   29 ar
    47   24   25 ar
    48   25   26 ar
    49   26   27 ar
    50   27   28 ar
    51   27   50 1
    52   28   29 ar
    53   28   51 1
    54   29   52 1
@<TRIPOS>MOLECULE
ZINC33533701
   61    64     0     0     0
SMALL
USER_CHARGES
(2R)-2-(4-tert-butylphenyl)-4-hydroxy-3-(5-methylfuran-2-carbonyl)-1-phenethyl-2H-pyrrol-5-one
@<TRIPOS>ATOM
      1 C1         -1.2474   -3.3928    3.7364 C.3       1 <0>        -0.0755
      2 C2         -1.6557   -2.7357    2.4431 C.2       1 <0>        -0.0075
      3 C3         -2.7736   -3.0195    1.7367 C.2       1 <0>        -0.2237
      4 C4         -2.7745   -2.1852    0.6096 C.2       1 <0>        -0.1563
      5 C5         -1.6278   -1.4241    0.6837 C.2       1 <0>        -0.0605
      6 O1         -0.9699   -1.7770    1.8076 O.3       1 <0>        -0.1408
      7 C6         -1.2020   -0.4078   -0.2830 C.2       1 <0>         0.5438
      8 O2         -1.9363   -0.0982   -1.2047 O.2       1 <0>        -0.4554
      9 C7          0.1087    0.2369   -0.1406 C.2       1 <0>        -0.4957
     10 C8          0.3409    1.5423    0.1275 C.2       1 <0>         0.2658
     11 C9          1.7979    1.7746    0.1865 C.2       1 <0>         0.5135
     12 O3          2.3245    2.8469    0.4088 O.2       1 <0>        -0.5347
     13 N1          2.4565    0.6240   -0.0430 N.am      1 <0>        -0.6101
     14 C10         1.4590   -0.4293   -0.2657 C.3       1 <0>         0.2663
     15 H1          1.5939   -1.2370    0.4687 H         1 <0>         0.0688
     16 C11         1.6224   -1.0145   -1.6449 C.ar      1 <0>        -0.0771
     17 C12         1.7902   -0.1802   -2.7342 C.ar      1 <0>        -0.0822
     18 C13         1.9454   -0.7172   -3.9986 C.ar      1 <0>        -0.1237
     19 C14         1.9213   -2.0880   -4.1750 C.ar      1 <0>        -0.0789
     20 C15         1.7483   -2.9221   -3.0863 C.ar      1 <0>        -0.1184
     21 C16         1.5988   -2.3854   -1.8213 C.ar      1 <0>        -0.1134
     22 C17         2.0843   -2.6732   -5.5542 C.3       1 <0>        -0.0260
     23 C18         0.8425   -3.4930   -5.9103 C.3       1 <0>        -0.1389
     24 C19         2.2579   -1.5428   -6.5706 C.3       1 <0>        -0.1449
     25 C20         3.3178   -3.5778   -5.5819 C.3       1 <0>        -0.1368
     26 C21         3.9113    0.4531   -0.0667 C.3       1 <0>         0.1460
     27 C22         4.4286    0.6822   -1.4882 C.3       1 <0>        -0.1098
     28 C23         5.9251    0.5063   -1.5127 C.ar      1 <0>        -0.0694
     29 C24         6.7522    1.5913   -1.2905 C.ar      1 <0>        -0.1152
     30 C25         8.1249    1.4290   -1.3077 C.ar      1 <0>        -0.1196
     31 C26         8.6705    0.1837   -1.5578 C.ar      1 <0>        -0.1299
     32 C27         7.8434   -0.9002   -1.7856 C.ar      1 <0>        -0.1207
     33 C28         6.4707   -0.7390   -1.7628 C.ar      1 <0>        -0.1144
     34 O4         -0.6117    2.4872    0.3075 O.3       1 <0>        -0.6533
     35 H2         -2.0008   -4.1421    4.0208 H         1 <0>         0.0874
     36 H3         -1.1712   -2.6313    4.5265 H         1 <0>         0.0793
     37 H4         -0.2722   -3.8846    3.6059 H         1 <0>         0.0782
     38 H5         -3.5268   -3.7493    1.9946 H         1 <0>         0.1472
     39 H6         -3.5256   -2.1477   -0.1656 H         1 <0>         0.1524
     40 H7          1.8042    0.8909   -2.5970 H         1 <0>         0.1159
     41 H8          2.0809   -0.0655   -4.8491 H         1 <0>         0.1200
     42 H9          1.7295   -3.9931   -3.2242 H         1 <0>         0.1137
     43 H10         1.4632   -3.0370   -0.9707 H         1 <0>         0.1156
     44 H11         0.9614   -3.9202   -6.9170 H         1 <0>         0.0538
     45 H12        -0.0444   -2.8425   -5.8904 H         1 <0>         0.0576
     46 H13         0.7177   -4.3057   -5.1795 H         1 <0>         0.0560
     47 H14         2.3769   -1.9700   -7.5773 H         1 <0>         0.0537
     48 H15         3.1506   -0.9534   -6.3145 H         1 <0>         0.0582
     49 H16         1.3710   -0.8924   -6.5507 H         1 <0>         0.0598
     50 H17         3.4367   -4.0049   -6.5886 H         1 <0>         0.0536
     51 H18         3.1930   -4.3905   -4.8512 H         1 <0>         0.0557
     52 H19         4.2106   -2.9884   -5.3258 H         1 <0>         0.0555
     53 H20         4.3770    1.1803    0.6147 H         1 <0>         0.0790
     54 H21         4.1660   -0.5671    0.2562 H         1 <0>         0.0748
     55 H22         3.9628   -0.0450   -2.1695 H         1 <0>         0.0878
     56 H23         4.1740    1.7025   -1.8111 H         1 <0>         0.0759
     57 H24         6.3260    2.5651   -1.0995 H         1 <0>         0.1226
     58 H25         8.7711    2.2757   -1.1294 H         1 <0>         0.1189
     59 H26         9.7430    0.0576   -1.5749 H         1 <0>         0.1170
     60 H27         8.2696   -1.8731   -1.9810 H         1 <0>         0.1182
     61 H28         5.8244   -1.5858   -1.9407 H         1 <0>         0.1207
@<TRIPOS>BOND
     1    1    2 1
     2    1   35 1
     3    1   36 1
     4    1   37 1
     5    2    6 1
     6    2    3 2
     7    3    4 1
     8    3   38 1
     9    4    5 2
    10    4   39 1
    11    5    6 1
    12    5    7 1
    13    7    8 2
    14    7    9 1
    15    9   14 1
    16    9   10 2
    17   10   11 1
    18   10   34 1
    19   11   12 2
    20   11   13 am
    21   13   14 1
    22   13   26 1
    23   14   15 1
    24   14   16 1
    25   16   21 ar
    26   16   17 ar
    27   17   18 ar
    28   17   40 1
    29   18   19 ar
    30   18   41 1
    31   19   20 ar
    32   19   22 1
    33   20   21 ar
    34   20   42 1
    35   21   43 1
    36   22   23 1
    37   22   24 1
    38   22   25 1
    39   23   44 1
    40   23   45 1
    41   23   46 1
    42   24   47 1
    43   24   48 1
    44   24   49 1
    45   25   50 1
    46   25   51 1
    47   25   52 1
    48   26   27 1
    49   26   53 1
    50   26   54 1
    51   27   28 1
    52   27   55 1
    53   27   56 1
    54   28   33 ar
    55   28   29 ar
    56   29   30 ar
    57   29   57 1
    58   30   31 ar
    59   30   58 1
    60   31   32 ar
    61   31   59 1
    62   32   33 ar
    63   32   60 1
    64   33   61 1
@<TRIPOS>MOLECULE
ZINC39871036
   49    50     0     0     0
SMALL
USER_CHARGES

@<TRIPOS>ATOM
      1 C1         -0.0187    1.5258    0.0104 C.3       1 <0>        -0.1526
      2 C2          0.0021   -0.0041    0.0020 C.3       1 <0>        -0.1247
      3 C3         -1.4333   -0.5336    0.0129 C.3       1 <0>        -0.1193
      4 C4         -1.4126   -2.0635    0.0045 C.3       1 <0>        -0.1132
      5 C5         -2.8479   -2.5931    0.0153 C.3       1 <0>        -0.1284
      6 C6         -2.8272   -4.1229    0.0069 C.3       1 <0>         0.1063
      7 N1         -4.2016   -4.6300    0.0173 N.am      1 <0>        -0.5297
      8 C7         -4.8169   -4.8616    1.2030 C.2       1 <0>         0.4913
      9 C8         -6.1288   -5.3457    1.2427 C.2       1 <0>        -0.1598
     10 C9         -6.8119   -5.5931    0.0404 C.2       1 <0>         0.1637
     11 C10        -6.1613   -5.3484   -1.1652 C.2       1 <0>        -0.2800
     12 C11        -4.8326   -4.8524   -1.1498 C.2       1 <0>         0.5740
     13 O1         -4.2571   -4.6307   -2.2008 O.2       1 <0>        -0.5583
     14 C12        -6.8285   -5.5902   -2.4090 C.1       1 <0>         0.3124
     15 N2         -7.3578   -5.7820   -3.3957 N.1       1 <0>        -0.4775
     16 C13        -8.2255   -6.1152    0.0559 C.3       1 <0>        -0.1254
     17 N3         -6.7390   -5.5759    2.4381 N.2       1 <0>        -0.1578
     18 N4         -6.1073   -5.3476    3.5393 N.2       1 <0>        -0.2770
     19 C14        -6.7202   -5.5788    4.7400 C.ar      1 <0>         0.1129
     20 C15        -8.0287   -6.0679    4.7774 C.ar      1 <0>        -0.1395
     21 C16        -8.6410   -6.2989    5.9912 C.ar      1 <0>        -0.1029
     22 C17        -7.9631   -6.0477    7.1712 C.ar      1 <0>        -0.1022
     23 C18        -6.6664   -5.5626    7.1425 C.ar      1 <0>        -0.0269
     24 C19        -6.0390   -5.3327    5.9343 C.ar      1 <0>        -0.0846
     25 Cl1        -5.8252   -5.2503    8.6286 Cl        1 <0>        -0.0788
     26 C20        -8.6393   -6.3027    8.4936 C.3       1 <0>        -0.1119
     27 O2         -4.1584   -4.6236    2.3542 O.3       1 <0>        -0.5770
     28 H1          1.0039    1.9031    0.0027 H         1 <0>         0.0504
     29 H2         -0.5459    1.8868   -0.8726 H         1 <0>         0.0523
     30 H3         -0.5289    1.8773    0.9072 H         1 <0>         0.0528
     31 H4          0.5123   -0.3556   -0.8948 H         1 <0>         0.0597
     32 H5          0.5293   -0.3651    0.8851 H         1 <0>         0.0603
     33 H6         -1.9435   -0.1821    0.9097 H         1 <0>         0.0612
     34 H7         -1.9605   -0.1726   -0.8702 H         1 <0>         0.0602
     35 H8         -0.9024   -2.4150   -0.8923 H         1 <0>         0.0616
     36 H9         -0.8854   -2.4246    0.8875 H         1 <0>         0.0633
     37 H10        -3.3581   -2.2415    0.9121 H         1 <0>         0.0676
     38 H11        -3.3751   -2.2320   -0.8677 H         1 <0>         0.0634
     39 H12        -2.3170   -4.4744   -0.8899 H         1 <0>         0.0849
     40 H13        -2.3000   -4.4840    0.8900 H         1 <0>         0.0907
     41 H14        -8.9223   -5.2770    0.0636 H         1 <0>         0.0849
     42 H15        -8.3981   -6.7230   -0.8322 H         1 <0>         0.0679
     43 H16        -8.3785   -6.7231    0.9476 H         1 <0>         0.0857
     44 H17        -8.5595   -6.2642    3.8575 H         1 <0>         0.1342
     45 H18        -9.6524   -6.6765    6.0211 H         1 <0>         0.1246
     46 H19        -5.0260   -4.9589    5.9128 H         1 <0>         0.1386
     47 H20        -8.4426   -7.3269    8.8107 H         1 <0>         0.0687
     48 H21        -8.2504   -5.6102    9.2401 H         1 <0>         0.0688
     49 H22        -9.7140   -6.1556    8.3864 H         1 <0>         0.0651
@<TRIPOS>BOND
     1    1    2 1
     2    1   28 1
     3    1   29 1
     4    1   30 1
     5    2    3 1
     6    2   31 1
     7    2   32 1
     8    3    4 1
     9    3   33 1
    10    3   34 1
    11    4    5 1
    12    4   35 1
    13    4   36 1
    14    5    6 1
    15    5   37 1
    16    5   38 1
    17    6    7 1
    18    6   39 1
    19    6   40 1
    20    7   12 am
    21    7    8 1
    22    8    9 2
    23    8   27 1
    24    9   10 1
    25    9   17 1
    26   10   11 2
    27   10   16 1
    28   11   12 1
    29   11   14 1
    30   12   13 2
    31   14   15 3
    32   16   41 1
    33   16   42 1
    34   16   43 1
    35   17   18 2
    36   18   19 1
    37   19   24 ar
    38   19   20 ar
    39   20   21 ar
    40   20   44 1
    41   21   22 ar
    42   21   45 1
    43   22   23 ar
    44   22   26 1
    45   23   24 ar
    46   23   25 1
    47   24   46 1
    48   26   47 1
    49   26   48 1
    50   26   49 1
@<TRIPOS>MOLECULE
ZINC40076531
   57    59     0     0     0
SMALL
USER_CHARGES

@<TRIPOS>ATOM
      1 C1          0.3730    1.7073   -0.3140 C.3       1 <0>        -0.1491
      2 C2          0.7339    0.2266   -0.4488 C.3       1 <0>        -0.1190
      3 C3          1.1209   -0.3309    0.9224 C.3       1 <0>        -0.1442
      4 C4          1.4819   -1.8116    0.7876 C.3       1 <0>         0.1389
      5 N1          1.8525   -2.3454    2.1006 N.am      1 <0>        -0.6117
      6 C5          3.2020   -2.3606    2.6771 C.3       1 <0>         0.2623
      7 H1          3.8724   -2.9444    2.0463 H         1 <0>         0.0681
      8 C6          3.0725   -3.0079    4.0361 C.2       1 <0>        -0.5013
      9 C7          1.7657   -3.3226    4.1959 C.2       1 <0>         0.2618
     10 C8          1.0148   -2.9032    2.9935 C.2       1 <0>         0.5106
     11 O1         -0.1814   -3.0436    2.8342 O.2       1 <0>        -0.5371
     12 O2          1.2309   -3.9209    5.2850 O.3       1 <0>        -0.6559
     13 C9          4.1536   -3.2488    4.9964 C.2       1 <0>         0.5040
     14 O3          4.1584   -2.6677    6.0652 O.2       1 <0>        -0.4751
     15 C10         5.2381   -4.1979    4.6659 C.ar      1 <0>        -0.1406
     16 C11         5.2098   -4.9035    3.4611 C.ar      1 <0>        -0.0612
     17 C12         6.2250   -5.7869    3.1590 C.ar      1 <0>        -0.1388
     18 C13         7.2696   -5.9753    4.0468 C.ar      1 <0>        -0.0774
     19 C14         7.3037   -5.2798    5.2428 C.ar      1 <0>        -0.1380
     20 C15         6.2983   -4.3886    5.5547 C.ar      1 <0>        -0.0717
     21 C16         8.3750   -6.9427    3.7101 C.3       1 <0>        -0.1127
     22 C17         3.7205   -0.9528    2.8196 C.ar      1 <0>        -0.0732
     23 C18         2.9317    0.0179    3.4082 C.ar      1 <0>        -0.0777
     24 C19         3.4073    1.3093    3.5390 C.ar      1 <0>        -0.1214
     25 C20         4.6717    1.6298    3.0814 C.ar      1 <0>        -0.0859
     26 C21         5.4608    0.6589    2.4936 C.ar      1 <0>        -0.1187
     27 C22         4.9869   -0.6335    2.3667 C.ar      1 <0>        -0.1137
     28 C23         5.1897    3.0379    3.2230 C.3       1 <0>        -0.0541
     29 C24         6.4612    3.0304    4.0740 C.3       1 <0>        -0.1431
     30 C25         5.5061    3.6066    1.8383 C.3       1 <0>        -0.1411
     31 H2          1.2313    2.2567    0.0726 H         1 <0>         0.0529
     32 H3          0.0973    2.1044   -1.2909 H         1 <0>         0.0499
     33 H4         -0.4668    1.8155    0.3724 H         1 <0>         0.0527
     34 H5         -0.1244   -0.3229   -0.8354 H         1 <0>         0.0598
     35 H6          1.5737    0.1184   -1.1352 H         1 <0>         0.0594
     36 H7          1.9793    0.2186    1.3090 H         1 <0>         0.0749
     37 H8          0.2812   -0.2227    1.6088 H         1 <0>         0.0637
     38 H9          0.6236   -2.3611    0.4010 H         1 <0>         0.0754
     39 H10         2.3217   -1.9198    0.1012 H         1 <0>         0.0716
     40 H11         4.3947   -4.7579    2.7676 H         1 <0>         0.1331
     41 H12         6.2043   -6.3332    2.2275 H         1 <0>         0.1206
     42 H13         8.1217   -5.4318    5.9314 H         1 <0>         0.1196
     43 H14         6.3283   -3.8431    6.4864 H         1 <0>         0.1277
     44 H15         9.1655   -6.4185    3.1730 H         1 <0>         0.0679
     45 H16         8.7795   -7.3665    4.6292 H         1 <0>         0.0637
     46 H17         7.9795   -7.7428    3.0843 H         1 <0>         0.0645
     47 H18         1.9439   -0.2326    3.7657 H         1 <0>         0.1153
     48 H19         2.7908    2.0678    3.9982 H         1 <0>         0.1139
     49 H20         6.4485    0.9095    2.1358 H         1 <0>         0.1137
     50 H21         5.6048   -1.3929    1.9108 H         1 <0>         0.1164
     51 H22         4.4332    3.6566    3.7057 H         1 <0>         0.0730
     52 H23         6.8359    4.0488    4.1764 H         1 <0>         0.0529
     53 H24         6.2358    2.6252    5.0605 H         1 <0>         0.0565
     54 H25         7.2178    2.4117    3.5913 H         1 <0>         0.0555
     55 H26         4.6003    3.6120    1.2321 H         1 <0>         0.0543
     56 H27         5.8808    4.6250    1.9408 H         1 <0>         0.0527
     57 H28         6.2627    2.9879    1.3557 H         1 <0>         0.0554
@<TRIPOS>BOND
     1    1    2 1
     2    1   31 1
     3    1   32 1
     4    1   33 1
     5    2    3 1
     6    2   34 1
     7    2   35 1
     8    3    4 1
     9    3   36 1
    10    3   37 1
    11    4    5 1
    12    4   38 1
    13    4   39 1
    14    5   10 am
    15    5    6 1
    16    6    7 1
    17    6    8 1
    18    6   22 1
    19    8    9 2
    20    8   13 1
    21    9   10 1
    22    9   12 1
    23   10   11 2
    24   13   14 2
    25   13   15 1
    26   15   20 ar
    27   15   16 ar
    28   16   17 ar
    29   16   40 1
    30   17   18 ar
    31   17   41 1
    32   18   19 ar
    33   18   21 1
    34   19   20 ar
    35   19   42 1
    36   20   43 1
    37   21   44 1
    38   21   45 1
    39   21   46 1
    40   22   27 ar
    41   22   23 ar
    42   23   24 ar
    43   23   47 1
    44   24   25 ar
    45   24   48 1
    46   25   26 ar
    47   25   28 1
    48   26   27 ar
    49   26   49 1
    50   27   50 1
    51   28   29 1
    52   28   30 1
    53   28   51 1
    54   29   52 1
    55   29   53 1
    56   29   54 1
    57   30   55 1
    58   30   56 1
    59   30   57 1
@<TRIPOS>MOLECULE
ZINC40527252
   56    57     0     0     0
SMALL
USER_CHARGES

@<TRIPOS>ATOM
      1 C1          0.4465    3.7662   -2.6806 C.3       1 <0>        -0.1528
      2 C2         -0.0932    2.3686   -2.3706 C.3       1 <0>        -0.1248
      3 C3          0.7535    1.3220   -3.0978 C.3       1 <0>        -0.1192
      4 C4          0.2137   -0.0756   -2.7878 C.3       1 <0>        -0.1131
      5 C5          1.0604   -1.1222   -3.5150 C.3       1 <0>        -0.1286
      6 C6          0.5206   -2.5198   -3.2050 C.3       1 <0>         0.1062
      7 N1          1.3313   -3.5219   -3.9013 N.am      1 <0>        -0.5252
      8 C7          0.9860   -3.9030   -5.1534 C.2       1 <0>         0.5243
      9 C8          1.7336   -4.8570   -5.8529 C.2       1 <0>        -0.4093
     10 C9          2.8677   -5.4393   -5.2562 C.2       1 <0>         0.1638
     11 C10         3.2242   -5.0490   -3.9707 C.2       1 <0>        -0.3013
     12 C11         2.4096   -4.0432   -3.2866 C.2       1 <0>         0.5724
     13 O1          2.7046   -3.6817   -2.1614 O.2       1 <0>        -0.5544
     14 C12         4.3709   -5.6175   -3.3284 C.1       1 <0>         0.3125
     15 N2          5.2806   -6.0685   -2.8189 N.1       1 <0>        -0.4860
     16 C13         3.6809   -6.4686   -5.9980 C.3       1 <0>        -0.1308
     17 C14         1.3360   -5.2496   -7.2047 C.2       1 <0>         0.4307
     18 O2          2.0493   -5.9824   -7.8583 O.2       1 <0>        -0.4838
     19 C15         0.0406   -4.7441   -7.7858 C.3       1 <0>         0.0476
     20 H1         -0.7230   -4.7238   -7.0083 H         1 <0>         0.1290
     21 C16         0.2456   -3.3315   -8.3365 C.3       1 <0>        -0.1155
     22 C17        -1.0987   -2.7629   -8.7953 C.3       1 <0>        -0.1446
     23 O3         -0.3780   -5.6110   -8.8419 O.3       1 <0>        -0.2978
     24 C18        -1.7145   -5.8212   -8.9748 C.ar      1 <0>         0.1387
     25 C19        -2.1919   -6.6303   -9.9952 C.ar      1 <0>        -0.1342
     26 C20        -3.5503   -6.8431  -10.1291 C.ar      1 <0>        -0.1154
     27 C21        -4.4351   -6.2486   -9.2454 C.ar      1 <0>         0.0432
     28 C22        -3.9600   -5.4404   -8.2267 C.ar      1 <0>        -0.1104
     29 C23        -2.6016   -5.2313   -8.0865 C.ar      1 <0>        -0.1836
     30 F1         -5.7634   -6.4572   -9.3777 F         1 <0>        -0.1478
     31 O4         -0.0963   -3.3547   -5.7360 O.3       1 <0>        -0.6345
     32 H2          1.4811    3.8389   -2.3451 H         1 <0>         0.0524
     33 H3          0.3997    3.9438   -3.7550 H         1 <0>         0.0528
     34 H4         -0.1567    4.5118   -2.1625 H         1 <0>         0.0505
     35 H5         -0.0464    2.1911   -1.2962 H         1 <0>         0.0596
     36 H6         -1.1277    2.2959   -2.7061 H         1 <0>         0.0602
     37 H7          0.7066    1.4995   -4.1722 H         1 <0>         0.0613
     38 H8          1.7880    1.3947   -2.7623 H         1 <0>         0.0601
     39 H9          0.2605   -0.2532   -1.7134 H         1 <0>         0.0612
     40 H10        -0.8208   -0.1483   -3.1233 H         1 <0>         0.0634
     41 H11         1.0136   -0.9447   -4.5894 H         1 <0>         0.0692
     42 H12         2.0949   -1.0495   -3.1795 H         1 <0>         0.0628
     43 H13         0.5675   -2.6974   -2.1306 H         1 <0>         0.0838
     44 H14        -0.5139   -2.5925   -3.5405 H         1 <0>         0.0938
     45 H15         4.4002   -5.9661   -6.6447 H         1 <0>         0.0835
     46 H16         4.2121   -7.0964   -5.2827 H         1 <0>         0.0555
     47 H17         3.0187   -7.0876   -6.6033 H         1 <0>         0.1002
     48 H18         0.6623   -2.6943   -7.5565 H         1 <0>         0.0996
     49 H19         0.9325   -3.3672   -9.1821 H         1 <0>         0.0552
     50 H20        -0.9527   -1.7565   -9.1876 H         1 <0>         0.0497
     51 H21        -1.5155   -3.4001   -9.5753 H         1 <0>         0.0465
     52 H22        -1.7857   -2.7272   -7.9498 H         1 <0>         0.0611
     53 H23        -1.5020   -7.0936  -10.6850 H         1 <0>         0.1381
     54 H24        -3.9223   -7.4730  -10.9235 H         1 <0>         0.1364
     55 H25        -4.6513   -4.9770   -7.5383 H         1 <0>         0.1341
     56 H26        -2.2309   -4.6047   -7.2888 H         1 <0>         0.1533
@<TRIPOS>BOND
     1    1    2 1
     2    1   32 1
     3    1   33 1
     4    1   34 1
     5    2    3 1
     6    2   35 1
     7    2   36 1
     8    3    4 1
     9    3   37 1
    10    3   38 1
    11    4    5 1
    12    4   39 1
    13    4   40 1
    14    5    6 1
    15    5   41 1
    16    5   42 1
    17    6    7 1
    18    6   43 1
    19    6   44 1
    20    7   12 am
    21    7    8 1
    22    8    9 2
    23    8   31 1
    24    9   10 1
    25    9   17 1
    26   10   11 2
    27   10   16 1
    28   11   12 1
    29   11   14 1
    30   12   13 2
    31   14   15 3
    32   16   45 1
    33   16   46 1
    34   16   47 1
    35   17   18 2
    36   17   19 1
    37   19   20 1
    38   19   21 1
    39   19   23 1
    40   21   22 1
    41   21   48 1
    42   21   49 1
    43   22   50 1
    44   22   51 1
    45   22   52 1
    46   23   24 1
    47   24   29 ar
    48   24   25 ar
    49   25   26 ar
    50   25   53 1
    51   26   27 ar
    52   26   54 1
    53   27   28 ar
    54   27   30 1
    55   28   29 ar
    56   28   55 1
    57   29   56 1
@<TRIPOS>MOLECULE
ZINC08550065
   35    37     0     0     0
SMALL
USER_CHARGES
3-(p-tolyl)-6-thia-2-azabicyclo[5.4.0]undeca-2,8,10,12-tetraene-5-carboxylic acid
@<TRIPOS>ATOM
      1 C1         -5.2380    3.8934    0.0462 C.3       1 <0>        -0.1143
      2 C2         -3.8698    3.2617    0.0366 C.ar      1 <0>        -0.0783
      3 C3         -2.7429    4.0589    0.1353 C.ar      1 <0>        -0.1347
      4 C4         -1.4875    3.4882    0.1278 C.ar      1 <0>        -0.0658
      5 C5         -1.3551    2.1007    0.0195 C.ar      1 <0>        -0.0785
      6 C6         -2.4980    1.3026   -0.0856 C.ar      1 <0>        -0.0887
      7 C7         -3.7468    1.8874   -0.0703 C.ar      1 <0>        -0.1275
      8 C8         -0.0181    1.4834    0.0102 C.2       1 <0>         0.3129
      9 N1          0.9266    2.2479    0.2641 N.2       1 <0>        -0.5892
     10 C9          2.2550    2.3517    0.2781 C.ar      1 <0>         0.1632
     11 C10         2.7456    3.6510    0.5455 C.ar      1 <0>        -0.0842
     12 C11         4.0891    3.9236    0.5559 C.ar      1 <0>        -0.1273
     13 C12         5.0001    2.9114    0.3018 C.ar      1 <0>        -0.1084
     14 C13         4.5472    1.6377    0.0529 C.ar      1 <0>        -0.0928
     15 C14         3.1804    1.3331    0.0443 C.ar      1 <0>        -0.1258
     16 S1          2.7474   -0.3338   -0.2626 S.3       1 <0>        -0.0620
     17 C15         1.1978   -0.3481   -1.1542 C.3       1 <0>        -0.1214
     18 H1          1.2683    0.3506   -1.9878 H         1 <0>         0.0877
     19 C16         0.0159    0.0306   -0.3079 C.3       1 <0>        -0.1270
     20 C17         0.9734   -1.7330   -1.7044 C.2       1 <0>         0.4910
     21 O1          0.3203   -2.5335   -1.0778 O.co2     1 <0>        -0.6140
     22 H2         -5.5368    4.1285   -0.9754 H         1 <0>         0.0696
     23 H3         -5.9556    3.1994    0.4840 H         1 <0>         0.0656
     24 H4         -5.2113    4.8091    0.6368 H         1 <0>         0.0644
     25 H5         -2.8468    5.1306    0.2189 H         1 <0>         0.1207
     26 H6         -0.6090    4.1115    0.2056 H         1 <0>         0.1322
     27 H7         -2.4034    0.2304   -0.1740 H         1 <0>         0.1361
     28 H8         -4.6309    1.2718   -0.1463 H         1 <0>         0.1244
     29 H9          2.0448    4.4478    0.7466 H         1 <0>         0.1250
     30 H10         4.4364    4.9253    0.7614 H         1 <0>         0.1252
     31 H11         6.0594    3.1218    0.2990 H         1 <0>         0.1268
     32 H12         5.2631    0.8524   -0.1401 H         1 <0>         0.1272
     33 H13         0.0550   -0.5332    0.6241 H         1 <0>         0.1037
     34 H14        -0.8968   -0.2346   -0.8415 H         1 <0>         0.1028
     35 O2          1.4991   -2.0773   -2.8905 O.co2     1 <0>        -0.7385
@<TRIPOS>BOND
     1    1    2 1
     2    1   22 1
     3    1   23 1
     4    1   24 1
     5    2    7 ar
     6    2    3 ar
     7    3    4 ar
     8    3   25 1
     9    4    5 ar
    10    4   26 1
    11    5    6 ar
    12    5    8 1
    13    6    7 ar
    14    6   27 1
    15    7   28 1
    16    8   19 1
    17    8    9 2
    18    9   10 1
    19   10   15 ar
    20   10   11 ar
    21   11   12 ar
    22   11   29 1
    23   12   13 ar
    24   12   30 1
    25   13   14 ar
    26   13   31 1
    27   14   15 ar
    28   14   32 1
    29   15   16 1
    30   16   17 1
    31   17   18 1
    32   17   19 1
    33   17   20 1
    34   19   33 1
    35   19   34 1
    36   20   21 2
    37   20   35 1
@<TRIPOS>MOLECULE
ZINC04638381
   32    34     0     0     0
SMALL
USER_CHARGES

@<TRIPOS>ATOM
      1 C1         -0.0168    1.3882    0.0097 C.ar      1 <0>        -0.1256
      2 C2          1.1626    2.0998    0.0022 C.ar      1 <0>        -0.1229
      3 C3          2.3853    1.4338   -0.0134 C.ar      1 <0>        -0.0881
      4 C4          2.4167    0.0503   -0.0211 C.ar      1 <0>        -0.1250
      5 C5          1.2112   -0.6770   -0.0130 C.ar      1 <0>        -0.1256
      6 C6          0.0021   -0.0041    0.0020 C.ar      1 <0>        -0.0865
      7 C7          1.5640   -2.1187   -0.0242 C.2       1 <0>         0.4361
      8 O1          0.7721   -3.0508   -0.0213 O.3       1 <0>        -0.5463
      9 C8          2.9690   -2.2280   -0.0387 C.2       1 <0>        -0.5138
     10 C9          3.7243   -3.4801   -0.0525 C.2       1 <0>         0.2756
     11 N1          5.0240   -3.4550   -0.0652 N.2       1 <0>        -0.5727
     12 C10         5.7808   -4.7094   -0.0790 C.3       1 <0>         0.0801
     13 C11         6.5416   -4.8229   -1.3749 C.ar      1 <0>        -0.0518
     14 C12         5.9541   -5.4280   -2.4702 C.ar      1 <0>        -0.1038
     15 C13         6.6513   -5.5324   -3.6590 C.ar      1 <0>        -0.1114
     16 C14         7.9375   -5.0312   -3.7527 C.ar      1 <0>        -0.0439
     17 C15         8.5249   -4.4258   -2.6561 C.ar      1 <0>        -0.1123
     18 C16         7.8245   -4.3169   -1.4695 C.ar      1 <0>        -0.0889
     19 Cl1         8.8141   -5.1625   -5.2453 Cl        1 <0>        -0.0855
     20 C17         3.5275   -0.9340   -0.0374 C.2       1 <0>         0.4391
     21 O2          4.7212   -0.6681   -0.0481 O.2       1 <0>        -0.5038
     22 H1         -0.9607    1.9127    0.0260 H         1 <0>         0.1207
     23 H2          1.1388    3.1795    0.0082 H         1 <0>         0.1206
     24 H3          3.3075    1.9959   -0.0199 H         1 <0>         0.1226
     25 H4         -0.9252   -0.5578    0.0082 H         1 <0>         0.1225
     26 H5          3.2024   -4.4256   -0.0520 H         1 <0>         0.0669
     27 H6          6.4815   -4.7202    0.7559 H         1 <0>         0.0736
     28 H7          5.0928   -5.5498    0.0132 H         1 <0>         0.0344
     29 H8          4.9502   -5.8196   -2.3969 H         1 <0>         0.1266
     30 H9          6.1924   -6.0055   -4.5146 H         1 <0>         0.1285
     31 H10         9.5290   -4.0346   -2.7285 H         1 <0>         0.1290
     32 H11         8.2812   -3.8400   -0.6148 H         1 <0>         0.1317
@<TRIPOS>BOND
     1    1    6 ar
     2    1    2 ar
     3    1   22 1
     4    2    3 ar
     5    2   23 1
     6    3    4 ar
     7    3   24 1
     8    4   20 1
     9    4    5 ar
    10    5    6 ar
    11    5    7 1
    12    6   25 1
    13    7    8 1
    14    7    9 2
    15    9   20 1
    16    9   10 1
    17   10   26 1
    18   10   11 2
    19   11   12 1
    20   12   13 1
    21   12   27 1
    22   12   28 1
    23   13   18 ar
    24   13   14 ar
    25   14   15 ar
    26   14   29 1
    27   15   16 ar
    28   15   30 1
    29   16   17 ar
    30   16   19 1
    31   17   18 ar
    32   17   31 1
    33   18   32 1
    34   20   21 2
@<TRIPOS>MOLECULE
ZINC41956285
   31    32     0     0     0
SMALL
USER_CHARGES

@<TRIPOS>ATOM
      1 C1          0.9700    1.5538   -1.1772 C.3       1 <0>        -0.0993
      2 C2          0.7682    0.0852   -0.9063 C.ar      1 <0>        -0.1401
      3 C3          0.6280   -0.7982   -1.9609 C.ar      1 <0>        -0.0799
      4 C4          0.4425   -2.1450   -1.7157 C.ar      1 <0>        -0.1542
      5 C5          0.3972   -2.6116   -0.4101 C.ar      1 <0>         0.1951
      6 C6          0.5385   -1.7233    0.6469 C.ar      1 <0>        -0.1367
      7 C7          0.7291   -0.3773    0.3959 C.ar      1 <0>        -0.0680
      8 Br1         0.4768   -2.3545    2.4284 Br        1 <0>        -0.0613
      9 O1          0.2143   -3.9362   -0.1665 O.3       1 <0>        -0.2819
     10 C8         -0.0525   -4.7724   -1.2941 C.3       1 <0>         0.0620
     11 C9         -1.3121   -4.2787   -2.0086 C.3       1 <0>        -0.1736
     12 C10        -0.2650   -6.2123   -0.8223 C.3       1 <0>        -0.1289
     13 C11         0.5488   -7.3091   -1.5119 C.3       1 <0>        -0.1735
     14 C12         0.8886   -6.8901   -0.0802 C.3       1 <0>        -0.1746
     15 C13         1.1162   -4.7225   -2.2442 C.2       1 <0>         0.4860
     16 O2          2.0875   -4.0345   -1.9802 O.co2     1 <0>        -0.6667
     17 O3          1.0904   -5.3701   -3.2769 O.co2     1 <0>        -0.6751
     18 H1          2.0360    1.7644   -1.2629 H         1 <0>         0.0631
     19 H2          0.4703    1.8237   -2.1075 H         1 <0>         0.0609
     20 H3          0.5496    2.1357   -0.3569 H         1 <0>         0.0594
     21 H4          0.6633   -0.4348   -2.9773 H         1 <0>         0.1205
     22 H5          0.3324   -2.8342   -2.5400 H         1 <0>         0.1471
     23 H6          0.8432    0.3140    1.2177 H         1 <0>         0.1264
     24 H7         -1.2113   -3.2162   -2.2301 H         1 <0>         0.0687
     25 H8         -1.4434   -4.8328   -2.9380 H         1 <0>         0.0775
     26 H9         -2.1790   -4.4353   -1.3666 H         1 <0>         0.0520
     27 H10        -1.2793   -6.4594   -0.5089 H         1 <0>         0.0976
     28 H11         0.0699   -8.2781   -1.6525 H         1 <0>         0.0828
     29 H12         1.2356   -7.0049   -2.3018 H         1 <0>         0.1355
     30 H13         1.7989   -6.3102    0.0719 H         1 <0>         0.0946
     31 H14         0.6332   -7.5834    0.7212 H         1 <0>         0.0846
@<TRIPOS>BOND
     1    1    2 1
     2    1   18 1
     3    1   19 1
     4    1   20 1
     5    2    7 ar
     6    2    3 ar
     7    3    4 ar
     8    3   21 1
     9    4    5 ar
    10    4   22 1
    11    5    6 ar
    12    5    9 1
    13    6    7 ar
    14    6    8 1
    15    7   23 1
    16    9   10 1
    17   10   11 1
    18   10   12 1
    19   10   15 1
    20   11   24 1
    21   11   25 1
    22   11   26 1
    23   12   14 1
    24   12   13 1
    25   12   27 1
    26   13   14 1
    27   13   28 1
    28   13   29 1
    29   14   30 1
    30   14   31 1
    31   15   16 2
    32   15   17 1
@<TRIPOS>MOLECULE
ZINC49991774
   41    42     0     0     0
SMALL
USER_CHARGES

@<TRIPOS>ATOM
      1 C1          1.0568    1.9528    1.1808 C.3       1 <0>        -0.1055
      2 C2          0.8565    0.4921    0.8689 C.ar      1 <0>        -0.1096
      3 C3          0.5236    0.0986   -0.4138 C.ar      1 <0>        -0.1286
      4 C4          0.3398   -1.2413   -0.6999 C.ar      1 <0>        -0.0976
      5 C5          0.4894   -2.1877    0.2966 C.ar      1 <0>        -0.0638
      6 C6          0.8233   -1.7942    1.5790 C.ar      1 <0>        -0.1120
      7 C7          1.0112   -0.4547    1.8641 C.ar      1 <0>        -0.1339
      8 C8          0.2881   -3.6483   -0.0151 C.3       1 <0>         0.1655
      9 C9          1.4268   -4.1403   -0.9109 C.3       1 <0>        -0.1228
     10 C10        -1.0270   -3.8334   -0.7272 C.2       1 <0>         0.5010
     11 O1         -1.1865   -3.3694   -1.8434 O.co2     1 <0>        -0.6938
     12 O2         -1.9316   -4.4472   -0.1872 O.co2     1 <0>        -0.6754
     13 N1          0.2807   -4.4172    1.2318 N.pl3     1 <0>        -0.6536
     14 C11        -0.7629   -4.1803    2.2323 C.3       1 <0>         0.1361
     15 C12         1.2687   -5.3761    1.4669 C.ar      1 <0>         0.1962
     16 C13         2.4834   -5.0013    2.0274 C.ar      1 <0>        -0.1312
     17 C14         3.4578   -5.9519    2.2588 C.ar      1 <0>        -0.1275
     18 C15         3.2258   -7.2759    1.9330 C.ar      1 <0>        -0.1344
     19 C16         2.0182   -7.6523    1.3747 C.ar      1 <0>        -0.1221
     20 C17         1.0368   -6.7075    1.1462 C.ar      1 <0>        -0.0881
     21 C18        -0.2816   -7.1197    0.5438 C.3       1 <0>        -0.1146
     22 H1          2.1014    2.2189    1.0192 H         1 <0>         0.0613
     23 H2          0.4236    2.5538    0.5281 H         1 <0>         0.0598
     24 H3          0.7903    2.1422    2.2206 H         1 <0>         0.0585
     25 H4          0.4067    0.8379   -1.1923 H         1 <0>         0.1126
     26 H5          0.0790   -1.5487   -1.7018 H         1 <0>         0.1401
     27 H6          0.9398   -2.5336    2.3576 H         1 <0>         0.1226
     28 H7          1.2757   -0.1476    2.8652 H         1 <0>         0.1095
     29 H8          2.3780   -4.0064   -0.3958 H         1 <0>         0.0447
     30 H9          1.2812   -5.1967   -1.1363 H         1 <0>         0.0519
     31 H10         1.4323   -3.5682   -1.8387 H         1 <0>         0.0658
     32 H11        -1.5837   -4.8798    2.0737 H         1 <0>         0.0461
     33 H12        -0.3493   -4.3257    3.2302 H         1 <0>         0.0274
     34 H13        -1.1323   -3.1592    2.1373 H         1 <0>         0.0521
     35 H14         2.6656   -3.9675    2.2814 H         1 <0>         0.1164
     36 H15         4.4023   -5.6612    2.6945 H         1 <0>         0.1129
     37 H16         3.9897   -8.0174    2.1148 H         1 <0>         0.1127
     38 H17         1.8404   -8.6869    1.1208 H         1 <0>         0.1141
     39 H18        -0.2032   -7.1101   -0.5434 H         1 <0>         0.0618
     40 H19        -0.5367   -8.1244    0.8808 H         1 <0>         0.0477
     41 H20        -1.0585   -6.4228    0.8582 H         1 <0>         0.0979
@<TRIPOS>BOND
     1    1    2 1
     2    1   22 1
     3    1   23 1
     4    1   24 1
     5    2    7 ar
     6    2    3 ar
     7    3    4 ar
     8    3   25 1
     9    4    5 ar
    10    4   26 1
    11    5    6 ar
    12    5    8 1
    13    6    7 ar
    14    6   27 1
    15    7   28 1
    16    8    9 1
    17    8   10 1
    18    8   13 1
    19    9   29 1
    20    9   30 1
    21    9   31 1
    22   10   11 2
    23   10   12 1
    24   13   14 1
    25   13   15 1
    26   14   32 1
    27   14   33 1
    28   14   34 1
    29   15   20 ar
    30   15   16 ar
    31   16   17 ar
    32   16   35 1
    33   17   18 ar
    34   17   36 1
    35   18   19 ar
    36   18   37 1
    37   19   20 ar
    38   19   38 1
    39   20   21 1
    40   21   39 1
    41   21   40 1
    42   21   41 1
@<TRIPOS>MOLECULE
ZINC62190689
   32    33     0     0     0
SMALL
USER_CHARGES

@<TRIPOS>ATOM
      1 C1         -0.0187    1.5258    0.0104 C.3       1 <0>        -0.1436
      2 C2          0.0021   -0.0041    0.0020 C.3       1 <0>        -0.0833
      3 C3          0.7074   -0.4901   -1.2379 C.ar      1 <0>        -0.0388
      4 C4         -0.0116   -0.7183   -2.3970 C.ar      1 <0>        -0.2182
      5 C5          0.6315   -1.1647   -3.5367 C.ar      1 <0>        -0.0800
      6 C6          1.9952   -1.3837   -3.5211 C.ar      1 <0>        -0.1568
      7 C7          2.7204   -1.1550   -2.3589 C.ar      1 <0>         0.2812
      8 C8          2.0718   -0.7016   -1.2170 C.ar      1 <0>        -0.2579
      9 N1          4.0995   -1.3755   -2.3396 N.2       1 <0>        -1.0828
     10 S1          4.9624   -1.1022   -0.9529 S.o2      1 <0>         2.6276
     11 O1          4.9051    0.2963   -0.7077 O.2       1 <0>        -1.0224
     12 O2          4.5184   -2.0610   -0.0027 O.2       1 <0>        -1.0232
     13 C9          6.6466   -1.4834   -1.3036 C.2       1 <0>        -0.6642
     14 C10         7.6273   -0.6701   -1.7663 C.2       1 <0>        -0.0474
     15 C11         8.8909   -1.1924   -1.9697 C.2       1 <0>        -0.1798
     16 C12         9.1119   -2.5023   -1.7003 C.2       1 <0>        -0.1706
     17 S2          7.5060   -3.0390   -1.1342 S.3       1 <0>         0.1381
     18 C13         2.6953   -1.8707   -4.7636 C.3       1 <0>        -0.0782
     19 H1          1.0039    1.9031    0.0027 H         1 <0>         0.0566
     20 H2         -0.5459    1.8868   -0.8726 H         1 <0>         0.0535
     21 H3         -0.5289    1.8773    0.9072 H         1 <0>         0.0482
     22 H4          0.5293   -0.3651    0.8851 H         1 <0>         0.0630
     23 H5         -1.0205   -0.3814    0.0098 H         1 <0>         0.0630
     24 H6         -1.0780   -0.5479   -2.4119 H         1 <0>         0.0993
     25 H7          0.0669   -1.3426   -4.4400 H         1 <0>         0.1030
     26 H8          2.6334   -0.5189   -0.3127 H         1 <0>         0.0952
     27 H9          7.4244    0.3702   -1.9734 H         1 <0>         0.1425
     28 H10         9.6900   -0.5661   -2.3380 H         1 <0>         0.1359
     29 H11        10.0239   -3.0724   -1.7987 H         1 <0>         0.1879
     30 H12         3.0236   -1.0156   -5.3545 H         1 <0>         0.0452
     31 H13         3.5602   -2.4710   -4.4816 H         1 <0>         0.0709
     32 H14         2.0084   -2.4776   -5.3534 H         1 <0>         0.0363
@<TRIPOS>BOND
     1    1    2 1
     2    1   19 1
     3    1   20 1
     4    1   21 1
     5    2    3 1
     6    2   22 1
     7    2   23 1
     8    3    8 ar
     9    3    4 ar
    10    4    5 ar
    11    4   24 1
    12    5    6 ar
    13    5   25 1
    14    6    7 ar
    15    6   18 1
    16    7    8 ar
    17    7    9 1
    18    8   26 1
    19    9   10 1
    20   10   11 2
    21   10   12 2
    22   10   13 1
    23   13   17 1
    24   13   14 2
    25   14   15 1
    26   14   27 1
    27   15   16 2
    28   15   28 1
    29   16   17 1
    30   16   29 1
    31   18   30 1
    32   18   31 1
    33   18   32 1
@<TRIPOS>MOLECULE
ZINC00323651
   38    40     0     0     0
SMALL
USER_CHARGES
2-(3,4-dimethylphenyl)-6-methyl-quinoline-4-carboxylic acid
@<TRIPOS>ATOM
      1 C1         -2.5721    3.8394    0.1025 C.3       1 <0>        -0.1075
      2 C2         -1.2400    3.1355    0.0716 C.ar      1 <0>        -0.1135
      3 C3         -1.1980    1.7428    0.0581 C.ar      1 <0>        -0.1012
      4 C4         -0.0121    1.0757    0.0352 C.ar      1 <0>        -0.1061
      5 C5          1.1951    1.7990    0.0139 C.ar      1 <0>         0.1206
      6 C6          1.1458    3.2161    0.0228 C.ar      1 <0>        -0.0822
      7 C7         -0.0911    3.8693    0.0520 C.ar      1 <0>        -0.0792
      8 C8          2.4042    3.9620    0.0004 C.ar      1 <0>        -0.0465
      9 C9          3.5808    3.2256   -0.0285 C.ar      1 <0>        -0.1389
     10 C10         3.5159    1.8242   -0.0349 C.ar      1 <0>         0.1907
     11 N1          2.3722    1.1729   -0.0148 N.ar      1 <0>        -0.4814
     12 C11         4.7800    1.0496   -0.0663 C.ar      1 <0>        -0.0425
     13 C12         6.0062    1.7078    0.0162 C.ar      1 <0>        -0.0983
     14 C13         7.1792    0.9818   -0.0130 C.ar      1 <0>        -0.1206
     15 C14         7.1401   -0.3967   -0.1239 C.ar      1 <0>        -0.0845
     16 C15         5.9265   -1.0551   -0.2061 C.ar      1 <0>        -0.0996
     17 C16         4.7466   -0.3397   -0.1725 C.ar      1 <0>        -0.0763
     18 C17         5.8922   -2.5569   -0.3263 C.3       1 <0>        -0.1131
     19 C18         8.4247   -1.1839   -0.1558 C.3       1 <0>        -0.1156
     20 C19         2.4222    5.4399    0.0087 C.2       1 <0>         0.4950
     21 O1          1.3810    6.0603   -0.0697 O.co2     1 <0>        -0.6142
     22 H1         -2.9143    4.0145   -0.9174 H         1 <0>         0.0661
     23 H2         -3.2985    3.2195    0.6281 H         1 <0>         0.0603
     24 H3         -2.4670    4.7933    0.6193 H         1 <0>         0.0676
     25 H4         -2.1218    1.1835    0.0696 H         1 <0>         0.1210
     26 H5          0.0025   -0.0042    0.0290 H         1 <0>         0.1277
     27 H6         -0.1356    4.9484    0.0585 H         1 <0>         0.1707
     28 H7          4.5372    3.7270   -0.0462 H         1 <0>         0.1470
     29 H8          6.0380    2.7839    0.1032 H         1 <0>         0.1334
     30 H9          8.1297    1.4906    0.0512 H         1 <0>         0.1243
     31 H10         3.7994   -0.8551   -0.2323 H         1 <0>         0.1334
     32 H11         5.8587   -3.0003    0.6689 H         1 <0>         0.0675
     33 H12         5.0071   -2.8564   -0.8874 H         1 <0>         0.0644
     34 H13         6.7861   -2.9002   -0.8471 H         1 <0>         0.0676
     35 H14         8.7098   -1.4554    0.8606 H         1 <0>         0.0685
     36 H15         8.2820   -2.0885   -0.7470 H         1 <0>         0.0684
     37 H16         9.2116   -0.5773   -0.6041 H         1 <0>         0.0641
     38 O2          3.5934    6.0987    0.1031 O.co2     1 <0>        -0.7370
@<TRIPOS>BOND
     1    1    2 1
     2    1   22 1
     3    1   23 1
     4    1   24 1
     5    2    7 ar
     6    2    3 ar
     7    3    4 ar
     8    3   25 1
     9    4    5 ar
    10    4   26 1
    11    5   11 ar
    12    5    6 ar
    13    6    7 ar
    14    6    8 ar
    15    7   27 1
    16    8    9 ar
    17    8   20 1
    18    9   10 ar
    19    9   28 1
    20   10   11 ar
    21   10   12 1
    22   12   17 ar
    23   12   13 ar
    24   13   14 ar
    25   13   29 1
    26   14   15 ar
    27   14   30 1
    28   15   16 ar
    29   15   19 1
    30   16   17 ar
    31   16   18 1
    32   17   31 1
    33   18   32 1
    34   18   33 1
    35   18   34 1
    36   19   35 1
    37   19   36 1
    38   19   37 1
    39   20   21 2
    40   20   38 1
@<TRIPOS>MOLECULE
ZINC00314434
   31    33     0     0     0
SMALL
USER_CHARGES
4-(2,4-dimethylphenyl)-5-(2-thienyl)-2H-1,2,4-triazole-3-thione
@<TRIPOS>ATOM
      1 C1         -1.2936   -0.7737    0.0098 C.3       1 <0>        -0.1122
      2 C2          0.0021   -0.0041    0.0020 C.ar      1 <0>        -0.0773
      3 C3         -0.0167    1.3788    0.0096 C.ar      1 <0>        -0.1190
      4 C4          1.1689    2.0869    0.0021 C.ar      1 <0>        -0.0850
      5 C5          2.3808    1.4090   -0.0127 C.ar      1 <0>         0.1395
      6 C6          2.3963    0.0207   -0.0203 C.ar      1 <0>        -0.0486
      7 C7          1.2070   -0.6819   -0.0132 C.ar      1 <0>        -0.1169
      8 C8          3.7093   -0.7189   -0.0369 C.3       1 <0>        -0.1162
      9 N1          3.5852    2.1243   -0.0195 N.pl3     1 <0>        -0.4601
     10 C9          4.2923    2.5325    1.0977 C.2       1 <0>         0.2394
     11 N2          5.3603    3.1710    0.7003 N.2       1 <0>        -0.2912
     12 N3          5.3601    3.1858   -0.7012 N.2       1 <0>        -0.3744
     13 C10         4.2576    2.5286   -1.1154 C.2       1 <0>         0.4020
     14 S1          3.7939    2.2592   -2.7412 S.3       1 <0>        -0.7548
     15 C11         3.9060    2.2886    2.4977 C.2       1 <0>        -0.0557
     16 C12         4.6624    2.4053    3.6360 C.2       1 <0>        -0.1382
     17 C13         4.0785    2.1207    4.8495 C.2       1 <0>        -0.1482
     18 C14         2.7765    1.7345    4.8838 C.2       1 <0>        -0.1957
     19 S2          2.3289    1.7718    3.1560 S.3       1 <0>         0.0770
     20 H1         -2.1384   -0.0693    0.0218 H         1 <0>         0.0639
     21 H2         -1.3356   -1.4119    0.9048 H         1 <0>         0.0675
     22 H3         -1.3525   -1.4016   -0.8914 H         1 <0>         0.0688
     23 H4         -0.9595    1.9055    0.0170 H         1 <0>         0.1245
     24 H5          1.1536    3.1668    0.0077 H         1 <0>         0.1204
     25 H6          1.2184   -1.7618   -0.0191 H         1 <0>         0.1243
     26 H7          3.5197   -1.8024   -0.0409 H         1 <0>         0.0656
     27 H8          4.2919   -0.4518    0.8571 H         1 <0>         0.0629
     28 H9          4.2746   -0.4422   -0.9391 H         1 <0>         0.0794
     29 H10         5.6958    2.7140    3.5811 H         1 <0>         0.1408
     30 H11         4.6485    2.2030    5.7632 H         1 <0>         0.1338
     31 H12         2.1674    1.4760    5.7374 H         1 <0>         0.1838
@<TRIPOS>BOND
     1    1    2 1
     2    1   20 1
     3    1   21 1
     4    1   22 1
     5    2    7 ar
     6    2    3 ar
     7    3    4 ar
     8    3   23 1
     9    4    5 ar
    10    4   24 1
    11    5    6 ar
    12    5    9 1
    13    6    7 ar
    14    6    8 1
    15    7   25 1
    16    8   26 1
    17    8   27 1
    18    8   28 1
    19    9   13 1
    20    9   10 1
    21   10   11 2
    22   10   15 1
    23   11   12 1
    24   12   13 2
    25   13   14 1
    26   15   19 1
    27   15   16 2
    28   16   17 1
    29   16   29 1
    30   17   18 2
    31   17   30 1
    32   18   19 1
    33   18   31 1
@<TRIPOS>MOLECULE
ZINC37333150
   36    37     0     0     0
SMALL
USER_CHARGES

@<TRIPOS>ATOM
      1 C1         -0.1087    1.4823   -0.0117 C.3       1 <0>        -0.1397
      2 C2         -0.0600   -0.0469   -0.0171 C.3       1 <0>        -0.0322
      3 C3          0.6823   -0.5379    1.2274 C.3       1 <0>        -0.1374
      4 C4         -1.4855   -0.6025   -0.0130 C.3       1 <0>        -0.1450
      5 C5          0.6609   -0.5222   -1.2522 C.ar      1 <0>        -0.0452
      6 C6          0.0072   -1.3305   -2.1644 C.ar      1 <0>        -0.1316
      7 C7          0.6647   -1.7679   -3.2972 C.ar      1 <0>        -0.0560
      8 C8          1.9844   -1.3946   -3.5203 C.ar      1 <0>        -0.1150
      9 C9          2.6378   -0.5820   -2.6019 C.ar      1 <0>        -0.0554
     10 C10         1.9727   -0.1444   -1.4737 C.ar      1 <0>        -0.1263
     11 S1          2.8274   -1.9508   -4.9641 S.3       1 <0>        -0.0023
     12 C11         2.3908   -0.7679   -6.1949 C.ar      1 <0>         0.0916
     13 C12         2.7890   -0.9718   -7.5164 C.ar      1 <0>        -0.1613
     14 C13         2.4487   -0.0521   -8.4694 C.ar      1 <0>        -0.0335
     15 C14         1.7039    1.0742   -8.0785 C.ar      1 <0>        -0.1791
     16 C15         1.3393    1.2137   -6.7362 C.ar      1 <0>         0.1356
     17 N1          1.6833    0.3015   -5.8525 N.ar      1 <0>        -0.4890
     18 C16         1.3144    2.0914   -9.0673 C.2       1 <0>         0.5248
     19 O1          1.6387    1.9606  -10.2398 O.co2     1 <0>        -0.6834
     20 O2          0.6661    3.0683   -8.7172 O.co2     1 <0>        -0.6825
     21 H1          0.9069    1.8782   -0.0147 H         1 <0>         0.0578
     22 H2         -0.6375    1.8321   -0.8983 H         1 <0>         0.0592
     23 H3         -0.6301    1.8261    0.8816 H         1 <0>         0.0578
     24 H4          0.1609   -0.1941    2.1207 H         1 <0>         0.0579
     25 H5          0.7170   -1.6273    1.2235 H         1 <0>         0.0560
     26 H6          1.6979   -0.1420    1.2245 H         1 <0>         0.0574
     27 H7         -2.0144   -0.2527   -0.8996 H         1 <0>         0.0606
     28 H8         -1.4509   -1.6920   -0.0169 H         1 <0>         0.0586
     29 H9         -2.0069   -0.2587    0.8803 H         1 <0>         0.0576
     30 H10        -1.0185   -1.6203   -1.9904 H         1 <0>         0.1287
     31 H11         0.1539   -2.3996   -4.0088 H         1 <0>         0.1257
     32 H12         3.6637   -0.2903   -2.7720 H         1 <0>         0.1268
     33 H13         2.4787    0.4905   -0.7615 H         1 <0>         0.1232
     34 H14         3.3611   -1.8478   -7.7842 H         1 <0>         0.1305
     35 H15         2.7457   -0.1877   -9.4989 H         1 <0>         0.1420
     36 H16         0.7674    2.0746   -6.4229 H         1 <0>         0.1630
@<TRIPOS>BOND
     1    1    2 1
     2    1   21 1
     3    1   22 1
     4    1   23 1
     5    2    3 1
     6    2    4 1
     7    2    5 1
     8    3   24 1
     9    3   25 1
    10    3   26 1
    11    4   27 1
    12    4   28 1
    13    4   29 1
    14    5   10 ar
    15    5    6 ar
    16    6    7 ar
    17    6   30 1
    18    7    8 ar
    19    7   31 1
    20    8    9 ar
    21    8   11 1
    22    9   10 ar
    23    9   32 1
    24   10   33 1
    25   11   12 1
    26   12   17 ar
    27   12   13 ar
    28   13   14 ar
    29   13   34 1
    30   14   15 ar
    31   14   35 1
    32   15   16 ar
    33   15   18 1
    34   16   17 ar
    35   16   36 1
    36   18   19 2
    37   18   20 1
@<TRIPOS>MOLECULE
ZINC48652637
   32    33     0     0     0
SMALL
USER_CHARGES

@<TRIPOS>ATOM
      1 C1         -0.0184    1.5028    0.0103 C.3       1 <0>        -0.1094
      2 C2          0.0021   -0.0041    0.0020 C.ar      1 <0>        -0.1281
      3 C3          0.0058   -0.6883   -1.1995 C.ar      1 <0>        -0.0548
      4 C4          0.0250   -2.0699   -1.2083 C.ar      1 <0>        -0.1781
      5 C5          0.0405   -2.7693   -0.0132 C.ar      1 <0>         0.1959
      6 C6          0.0368   -2.0831    1.1892 C.ar      1 <0>        -0.6531
      7 C7          0.0229   -0.7010    1.1955 C.ar      1 <0>        -0.0042
      8 S1          0.0559   -2.9713    2.7108 S.o2      1 <0>         2.6038
      9 O1          1.0941   -3.9358    2.6051 O.2       1 <0>        -1.0188
     10 O2          0.0204   -2.0007    3.7481 O.2       1 <0>        -1.0255
     11 N1         -1.3661   -3.8149    2.8032 N.2       1 <0>        -1.0771
     12 C8         -1.6306   -4.6182    3.9148 C.ar      1 <0>         0.2924
     13 C9         -0.7041   -4.7061    4.9465 C.ar      1 <0>        -0.2602
     14 C10        -0.9683   -5.5006    6.0445 C.ar      1 <0>        -0.0592
     15 C11        -2.1534   -6.2093    6.1185 C.ar      1 <0>        -0.2154
     16 C12        -3.0788   -6.1245    5.0930 C.ar      1 <0>         0.0121
     17 C13        -2.8226   -5.3263    3.9938 C.ar      1 <0>        -0.1428
     18 C14        -3.8331   -5.2290    2.8800 C.3       1 <0>        -0.0822
     19 Cl1        -4.5650   -7.0164    5.1898 Cl        1 <0>        -0.1031
     20 F1          0.0588   -4.1201   -0.0207 F         1 <0>        -0.1154
     21 H1          1.0042    1.8801    0.0026 H         1 <0>         0.0699
     22 H2         -0.5455    1.8639   -0.8728 H         1 <0>         0.0668
     23 H3         -0.5286    1.8543    0.9071 H         1 <0>         0.0698
     24 H4         -0.0067   -0.1426   -2.1314 H         1 <0>         0.1338
     25 H5          0.0275   -2.6041   -2.1469 H         1 <0>         0.1392
     26 H6          0.0245   -0.1655    2.1334 H         1 <0>         0.1466
     27 H7          0.2221   -4.1536    4.8895 H         1 <0>         0.1015
     28 H8         -0.2481   -5.5690    6.8465 H         1 <0>         0.1117
     29 H9         -2.3571   -6.8305    6.9781 H         1 <0>         0.1127
     30 H10        -3.6338   -6.0040    2.1398 H         1 <0>         0.0512
     31 H11        -4.8356   -5.3638    3.2861 H         1 <0>         0.0463
     32 H12        -3.7609   -4.2490    2.4084 H         1 <0>         0.0739
@<TRIPOS>BOND
     1    1    2 1
     2    1   21 1
     3    1   22 1
     4    1   23 1
     5    2    7 ar
     6    2    3 ar
     7    3    4 ar
     8    3   24 1
     9    4    5 ar
    10    4   25 1
    11    5    6 ar
    12    5   20 1
    13    6    7 ar
    14    6    8 1
    15    7   26 1
    16    8    9 2
    17    8   10 2
    18    8   11 1
    19   11   12 1
    20   12   17 ar
    21   12   13 ar
    22   13   14 ar
    23   13   27 1
    24   14   15 ar
    25   14   28 1
    26   15   16 ar
    27   15   29 1
    28   16   17 ar
    29   16   19 1
    30   17   18 1
    31   18   30 1
    32   18   31 1
    33   18   32 1
@<TRIPOS>MOLECULE
ZINC59268826
   26    27     0     0     0
SMALL
USER_CHARGES

@<TRIPOS>ATOM
      1 C1         -0.0187    1.5258    0.0104 C.3       1 <0>        -0.1342
      2 C2          0.0021   -0.0041    0.0020 C.3       1 <0>        -0.0341
      3 C3          0.7074   -0.4901   -1.2379 C.2       1 <0>        -0.1666
      4 C4          2.0498   -0.7648   -1.4187 C.2       1 <0>        -0.0230
      5 N1          2.4590   -1.1876   -2.6085 N.2       1 <0>        -0.4078
      6 C5          1.5667   -1.3282   -3.5698 C.2       1 <0>         0.0498
      7 S1          0.0586   -0.8425   -2.7503 S.3       1 <0>         0.0736
      8 C6          1.7647   -1.7777   -4.9650 C.ar      1 <0>         0.0352
      9 C7          0.6784   -1.8531   -5.8374 C.ar      1 <0>        -0.1019
     10 C8          0.8691   -2.2730   -7.1375 C.ar      1 <0>        -0.0873
     11 C9          2.1354   -2.6193   -7.5772 C.ar      1 <0>        -0.0913
     12 C10         3.2170   -2.5469   -6.7161 C.ar      1 <0>        -0.0866
     13 C11         3.0395   -2.1224   -5.4156 C.ar      1 <0>        -0.0766
     14 Br1         2.3885   -3.1940   -9.3609 Br        1 <0>        -0.0572
     15 C12         3.0047   -0.5919   -0.3163 C.2       1 <0>         0.5491
     16 O1          2.6143   -0.2009    0.7758 O.co2     1 <0>        -0.6758
     17 O2          4.1909   -0.8388   -0.4898 O.co2     1 <0>        -0.6663
     18 H1          1.0039    1.9031    0.0027 H         1 <0>         0.0647
     19 H2         -0.5459    1.8868   -0.8726 H         1 <0>         0.0421
     20 H3         -0.5289    1.8773    0.9072 H         1 <0>         0.0581
     21 H4          0.5293   -0.3651    0.8851 H         1 <0>         0.1196
     22 H5         -1.0205   -0.3814    0.0098 H         1 <0>         0.0608
     23 H6         -0.3099   -1.5835   -5.4954 H         1 <0>         0.1344
     24 H7          0.0290   -2.3321   -7.8135 H         1 <0>         0.1364
     25 H8          4.2025   -2.8186   -7.0646 H         1 <0>         0.1376
     26 H9          3.8848   -2.0617   -4.7461 H         1 <0>         0.1474
@<TRIPOS>BOND
     1    1    2 1
     2    1   18 1
     3    1   19 1
     4    1   20 1
     5    2    3 1
     6    2   21 1
     7    2   22 1
     8    3    7 1
     9    3    4 2
    10    4    5 1
    11    4   15 1
    12    5    6 2
    13    6    7 1
    14    6    8 1
    15    8   13 ar
    16    8    9 ar
    17    9   10 ar
    18    9   23 1
    19   10   11 ar
    20   10   24 1
    21   11   12 ar
    22   11   14 1
    23   12   13 ar
    24   12   25 1
    25   13   26 1
    26   15   16 2
    27   15   17 1
@<TRIPOS>MOLECULE
ZINC04553302
   62    65     0     0     0
SMALL
USER_CHARGES
4-[(10,13-dimethyl-2,3,4,5,6,7,8,9,11,12,14,15,16,17-tetradecahydro-1H-cyclopenta[a]phenanthren-17-yl)oxy]-4-oxo-butanoic acid
@<TRIPOS>ATOM
      1 C1          1.1454    3.8756   -0.6453 C.3       1 <0>        -0.1503
      2 C2         -0.0491    3.9851   -1.5868 C.3       1 <0>        -0.0341
      3 C3          0.3755    3.4937   -2.9802 C.3       1 <0>        -0.1123
      4 C4          1.5184    4.3419   -3.5273 C.3       1 <0>        -0.1167
      5 C5          1.1190    5.8142   -3.5959 C.3       1 <0>        -0.1171
      6 C6          0.6764    6.3068   -2.2164 C.3       1 <0>        -0.1126
      7 C7         -0.4830    5.4488   -1.7200 C.3       1 <0>        -0.0727
      8 H1         -1.2984    5.4994   -2.4537 H         1 <0>         0.0627
      9 C8         -1.0060    5.9660   -0.3835 C.3       1 <0>        -0.1121
     10 C9         -2.2483    5.1658    0.0101 C.3       1 <0>        -0.1142
     11 C10        -1.9254    3.6783    0.1248 C.3       1 <0>        -0.0690
     12 H2         -2.8999    3.1454    0.1985 H         1 <0>         0.0627
     13 C11        -1.2308    3.1540   -1.1128 C.3       1 <0>        -0.0592
     14 H3         -1.9899    3.2315   -1.9390 H         1 <0>         0.0521
     15 C12        -0.9178    1.6723   -0.9900 C.3       1 <0>        -0.1098
     16 C13        -0.2295    1.2952    0.3051 C.3       1 <0>        -0.1058
     17 C14        -0.8241    1.9064    1.5460 C.3       1 <0>        -0.0441
     18 C15        -1.1728    3.3960    1.4203 C.3       1 <0>        -0.0655
     19 H4         -0.2960    4.0385    1.5431 H         1 <0>         0.0911
     20 C16        -2.1827    3.6080    2.5861 C.3       1 <0>        -0.1228
     21 C17        -2.9695    2.2862    2.6804 C.3       1 <0>        -0.1389
     22 C18        -2.1278    1.2123    1.9666 C.3       1 <0>         0.0932
     23 H5         -2.6546    0.8388    1.0888 H         1 <0>         0.0847
     24 O1         -1.8361    0.1188    2.8759 O.3       1 <0>        -0.3480
     25 C19        -2.6993   -0.9090    2.8897 C.2       1 <0>         0.4577
     26 O2         -3.6666   -0.8953    2.1659 O.2       1 <0>        -0.5134
     27 C20        -2.4619   -2.0801    3.8080 C.3       1 <0>        -0.0920
     28 C21        -3.5839   -3.1047    3.6284 C.3       1 <0>        -0.1459
     29 C22        -3.3465   -4.2758    4.5467 C.2       1 <0>         0.4621
     30 O3         -2.3791   -4.2895    5.2705 O.co2     1 <0>        -0.6414
     31 C23         0.1900    1.7445    2.6899 C.3       1 <0>        -0.1374
     32 H6          1.4963    2.8439   -0.6220 H         1 <0>         0.0584
     33 H7          1.9471    4.5242   -0.9986 H         1 <0>         0.0536
     34 H8          0.8468    4.1806    0.3576 H         1 <0>         0.0624
     35 H9         -0.4826    3.5512   -3.6520 H         1 <0>         0.0576
     36 H10         0.7033    2.4550   -2.9051 H         1 <0>         0.0631
     37 H11         1.7610    3.9968   -4.5407 H         1 <0>         0.0530
     38 H12         2.4117    4.2263   -2.9169 H         1 <0>         0.0629
     39 H13         0.3014    5.9399   -4.3069 H         1 <0>         0.0577
     40 H14         1.9734    6.4062   -3.9316 H         1 <0>         0.0564
     41 H15         0.3378    7.3452   -2.3091 H         1 <0>         0.0541
     42 H16         1.5119    6.2839   -1.5252 H         1 <0>         0.0655
     43 H17        -1.2871    7.0196   -0.4937 H         1 <0>         0.0540
     44 H18        -0.2494    5.8900    0.3906 H         1 <0>         0.0657
     45 H19        -3.0192    5.3099   -0.7538 H         1 <0>         0.0566
     46 H20        -2.6303    5.5391    0.9612 H         1 <0>         0.0655
     47 H21        -0.2980    1.3536   -1.8390 H         1 <0>         0.0658
     48 H22        -1.8615    1.1065   -1.0704 H         1 <0>         0.0546
     49 H23        -0.3065    0.1956    0.4168 H         1 <0>         0.0547
     50 H24         0.8367    1.5110    0.2587 H         1 <0>         0.0717
     51 H25        -1.6556    3.8095    3.5206 H         1 <0>         0.0665
     52 H26        -2.8609    4.4347    2.3653 H         1 <0>         0.0694
     53 H27        -3.1121    2.0122    3.7281 H         1 <0>         0.0729
     54 H28        -3.9407    2.3884    2.1943 H         1 <0>         0.0707
     55 H29        -1.5050   -2.5430    3.5665 H         1 <0>         0.1037
     56 H30        -2.4476   -1.7343    4.8416 H         1 <0>         0.1039
     57 H31        -4.5407   -2.6418    3.8699 H         1 <0>         0.0722
     58 H32        -3.5981   -3.4505    2.5948 H         1 <0>         0.0721
     59 H33         1.1133    2.2638    2.4331 H         1 <0>         0.0501
     60 H34        -0.2234    2.1692    3.6047 H         1 <0>         0.0575
     61 H35         0.3991    0.6858    2.8430 H         1 <0>         0.0656
     62 O4         -4.2097   -5.3036    4.5605 O.co2     1 <0>        -0.7692
@<TRIPOS>BOND
     1    1    2 1
     2    1   32 1
     3    1   33 1
     4    1   34 1
     5    2    7 1
     6    2   13 1
     7    2    3 1
     8    3    4 1
     9    3   35 1
    10    3   36 1
    11    4    5 1
    12    4   37 1
    13    4   38 1
    14    5    6 1
    15    5   39 1
    16    5   40 1
    17    6    7 1
    18    6   41 1
    19    6   42 1
    20    7    8 1
    21    7    9 1
    22    9   10 1
    23    9   43 1
    24    9   44 1
    25   10   11 1
    26   10   45 1
    27   10   46 1
    28   11   12 1
    29   11   18 1
    30   11   13 1
    31   13   14 1
    32   13   15 1
    33   15   16 1
    34   15   47 1
    35   15   48 1
    36   16   17 1
    37   16   49 1
    38   16   50 1
    39   17   22 1
    40   17   18 1
    41   17   31 1
    42   18   19 1
    43   18   20 1
    44   20   21 1
    45   20   51 1
    46   20   52 1
    47   21   22 1
    48   21   53 1
    49   21   54 1
    50   22   23 1
    51   22   24 1
    52   24   25 1
    53   25   26 2
    54   25   27 1
    55   27   28 1
    56   27   55 1
    57   27   56 1
    58   28   29 1
    59   28   57 1
    60   28   58 1
    61   29   30 2
    62   29   62 1
    63   31   59 1
    64   31   60 1
    65   31   61 1
@<TRIPOS>MOLECULE
ZINC07263287
   24    25     0     0     0
SMALL
USER_CHARGES
5-(4,5-dibromo-2-thienyl)-4-propyl-1,2,4-triazole-3-thiol
@<TRIPOS>ATOM
      1 C1         -0.0187    1.5258    0.0104 C.3       1 <0>        -0.1458
      2 C2          0.0021   -0.0041    0.0020 C.3       1 <0>        -0.1386
      3 C3          0.7182   -0.4975   -1.2568 C.3       1 <0>         0.1137
      4 N1          0.7381   -1.9623   -1.2648 N.pl3     1 <0>        -0.4853
      5 C4         -0.2059   -2.8049   -1.8090 C.2       1 <0>         0.1637
      6 N2          0.2061   -4.0348   -1.5925 N.2       1 <0>        -0.2444
      7 N3          1.3248   -4.0177   -0.9605 N.2       1 <0>        -0.3302
      8 C5          1.7007   -2.7789   -0.7389 C.2       1 <0>         0.3876
      9 S1          3.1704   -2.2648    0.0860 S.3       1 <0>        -0.7810
     10 C6         -1.4412   -2.4046   -2.5013 C.2       1 <0>        -0.0042
     11 C7         -2.2661   -3.1551   -3.3006 C.2       1 <0>        -0.1399
     12 C8         -3.3820   -2.5582   -3.8440 C.2       1 <0>        -0.0599
     13 C9         -3.6254   -1.2466   -3.5812 C.2       1 <0>        -0.1819
     14 S2         -2.2520   -0.8141   -2.5260 S.3       1 <0>         0.1565
     15 Br1        -5.0526   -0.1597   -4.1792 Br        1 <0>         0.0511
     16 Br2        -4.5561   -3.5478   -4.9476 Br        1 <0>        -0.0224
     17 H1         -0.5336    1.8805    0.9154 H         1 <0>         0.0596
     18 H2         -0.5508    1.8901   -0.8808 H         1 <0>         0.0543
     19 H3          1.0133    1.9066    0.0026 H         1 <0>         0.0614
     20 H4          0.5342   -0.3684    0.8932 H         1 <0>         0.0811
     21 H5         -1.0299   -0.3849    0.0099 H         1 <0>         0.0602
     22 H6          0.1861   -0.1331   -2.1479 H         1 <0>         0.0766
     23 H7          1.7502   -0.1167   -1.2647 H         1 <0>         0.1083
     24 H8         -2.0462   -4.1940   -3.4974 H         1 <0>         0.1595
@<TRIPOS>BOND
     1    1    2 1
     2    1   17 1
     3    1   18 1
     4    1   19 1
     5    2    3 1
     6    2   20 1
     7    2   21 1
     8    3   22 1
     9    3   23 1
    10    3    4 1
    11    4    8 1
    12    4    5 1
    13    5   10 1
    14    5    6 2
    15    6    7 1
    16    7    8 2
    17    8    9 1
    18   10   14 1
    19   10   11 2
    20   11   12 1
    21   11   24 1
    22   12   13 2
    23   12   16 1
    24   13   14 1
    25   13   15 1
@<TRIPOS>MOLECULE
ZINC35464984
   57    59     0     0     0
SMALL
USER_CHARGES

@<TRIPOS>ATOM
      1 C1         -0.0779    1.4907    0.2702 C.3       1 <0>        -0.1470
      2 C2         -0.0500   -0.0153    0.2221 C.2       1 <0>         0.4540
      3 O1          1.0073   -0.5992    0.1905 O.2       1 <0>        -0.5113
      4 O2         -1.1998   -0.7079    0.2145 O.3       1 <0>        -0.3425
      5 C3         -1.0986   -2.1340    0.1681 C.3       1 <0>         0.1035
      6 H1         -0.1749   -2.4410    0.6635 H         1 <0>         0.0806
      7 C4         -1.0529   -2.5860   -1.2955 C.3       1 <0>        -0.1193
      8 C5         -0.8832   -4.1011   -1.3454 C.3       1 <0>        -0.0284
      9 H2          0.0647   -4.3426   -0.8481 H         1 <0>         0.0672
     10 C6         -1.9749   -4.7574   -0.5529 C.2       1 <0>        -0.1340
     11 C7         -2.7111   -5.7356   -0.9970 C.2       1 <0>        -0.1291
     12 C8         -2.5151   -6.3460   -2.3606 C.3       1 <0>        -0.0806
     13 C9         -1.0566   -6.1197   -2.7700 C.3       1 <0>        -0.0416
     14 H3         -0.4337   -6.5520   -1.9493 H         1 <0>         0.0755
     15 C10        -0.7718   -4.6233   -2.7758 C.3       1 <0>        -0.0358
     16 C11         0.6510   -4.3532   -3.2754 C.3       1 <0>        -0.1039
     17 C12         0.8514   -4.9776   -4.6538 C.3       1 <0>        -0.1118
     18 C13         0.6874   -6.4903   -4.5570 C.3       1 <0>        -0.0914
     19 C14        -0.6986   -6.8678   -4.0349 C.3       1 <0>        -0.1178
     20 C15        -1.7339   -6.6871   -5.1444 C.3       1 <0>        -0.1177
     21 C16        -0.6471   -8.3566   -3.7082 C.2       1 <0>         0.4990
     22 O3         -0.9214   -9.1787   -4.5657 O.co2     1 <0>        -0.6992
     23 O4         -0.3318   -8.7246   -2.5894 O.co2     1 <0>        -0.6957
     24 C17        -1.7619   -3.8703   -3.6619 C.3       1 <0>        -0.1467
     25 C18        -2.2071   -4.2768    0.8681 C.3       1 <0>        -0.0648
     26 C19        -2.2911   -2.7511    0.8932 C.3       1 <0>        -0.0201
     27 C20        -3.6016   -2.2935    0.2505 C.3       1 <0>        -0.1395
     28 C21        -2.2754   -2.2881    2.3342 C.2       1 <0>        -0.1455
     29 C22        -3.2887   -1.6119    2.8160 C.2       1 <0>        -0.1922
     30 H4          0.9428    1.8732    0.2696 H         1 <0>         0.0985
     31 H5         -0.6094    1.8723   -0.6016 H         1 <0>         0.0984
     32 H6         -0.5872    1.8159    1.1773 H         1 <0>         0.0974
     33 H7         -1.9639   -2.2626   -1.7889 H         1 <0>         0.0797
     34 H8         -0.1962   -2.1078   -1.7809 H         1 <0>         0.0664
     35 H9         -3.4938   -6.1261   -0.3677 H         1 <0>         0.0983
     36 H10        -2.7193   -7.4171   -2.2844 H         1 <0>         0.0718
     37 H11        -3.2120   -5.9017   -3.0588 H         1 <0>         0.0698
     38 H12         0.8129   -3.2762   -3.3378 H         1 <0>         0.0520
     39 H13         1.3674   -4.7829   -2.5740 H         1 <0>         0.0585
     40 H14         0.1538   -4.5607   -5.3740 H         1 <0>         0.0606
     41 H15         1.8697   -4.7522   -4.9968 H         1 <0>         0.0472
     42 H16         0.8285   -6.9345   -5.5467 H         1 <0>         0.0538
     43 H17         1.4468   -6.8972   -3.8839 H         1 <0>         0.0533
     44 H18        -1.7336   -5.6488   -5.4761 H         1 <0>         0.0366
     45 H19        -1.4843   -7.3367   -5.9834 H         1 <0>         0.0552
     46 H20        -2.7221   -6.9471   -4.7651 H         1 <0>         0.0421
     47 H21        -1.5912   -2.7979   -3.5674 H         1 <0>         0.0469
     48 H22        -1.6214   -4.1705   -4.7002 H         1 <0>         0.0626
     49 H23        -2.7797   -4.1050   -3.3503 H         1 <0>         0.0551
     50 H24        -3.1382   -4.7017    1.2498 H         1 <0>         0.0758
     51 H25        -1.3809   -4.6073    1.5028 H         1 <0>         0.0705
     52 H26        -3.6220   -2.6042   -0.7941 H         1 <0>         0.0641
     53 H27        -4.4420   -2.7427    0.7796 H         1 <0>         0.0572
     54 H28        -3.6747   -1.2075    0.3080 H         1 <0>         0.0623
     55 H29        -1.4289   -2.5153    2.9652 H         1 <0>         0.1042
     56 H30        -4.1352   -1.3847    2.1850 H         1 <0>         0.1052
     57 H31        -3.2775   -1.2816    3.8442 H         1 <0>         0.0926
@<TRIPOS>BOND
     1    1    2 1
     2    1   30 1
     3    1   31 1
     4    1   32 1
     5    2    3 2
     6    2    4 1
     7    4    5 1
     8    5    6 1
     9    5   26 1
    10    5    7 1
    11    7    8 1
    12    7   33 1
    13    7   34 1
    14    8    9 1
    15    8   15 1
    16    8   10 1
    17   10   11 2
    18   10   25 1
    19   11   12 1
    20   11   35 1
    21   12   13 1
    22   12   36 1
    23   12   37 1
    24   13   14 1
    25   13   19 1
    26   13   15 1
    27   15   16 1
    28   15   24 1
    29   16   17 1
    30   16   38 1
    31   16   39 1
    32   17   18 1
    33   17   40 1
    34   17   41 1
    35   18   19 1
    36   18   42 1
    37   18   43 1
    38   19   20 1
    39   19   21 1
    40   20   44 1
    41   20   45 1
    42   20   46 1
    43   21   22 2
    44   21   23 1
    45   24   47 1
    46   24   48 1
    47   24   49 1
    48   25   26 1
    49   25   50 1
    50   25   51 1
    51   26   27 1
    52   26   28 1
    53   27   52 1
    54   27   53 1
    55   27   54 1
    56   28   29 2
    57   28   55 1
    58   29   56 1
    59   29   57 1
@<TRIPOS>MOLECULE
ZINC40285468
   27    29     0     0     0
SMALL
USER_CHARGES

@<TRIPOS>ATOM
      1 C1         -0.0167    1.3819    0.0096 C.ar      1 <0>        -0.0838
      2 C2          1.1622    2.0952    0.0022 C.ar      1 <0>        -0.1225
      3 C3          2.3811    1.4169   -0.0130 C.ar      1 <0>         0.1125
      4 C4          2.3957    0.0139   -0.0206 C.ar      1 <0>        -0.0415
      5 C5          1.2013   -0.6876   -0.0134 C.ar      1 <0>        -0.0423
      6 C6          0.0021   -0.0041    0.0020 C.ar      1 <0>        -0.1473
      7 C7         -1.2957   -0.7700    0.0107 C.3       1 <0>         0.0515
      8 H1         -1.0892   -1.8359   -0.0866 H         1 <0>         0.1259
      9 C8         -2.0207   -0.5152    1.3071 C.ar      1 <0>        -0.0181
     10 C9         -2.9889    0.4688    1.3753 C.ar      1 <0>        -0.1412
     11 C10        -3.6548    0.7028    2.5662 C.ar      1 <0>         0.1192
     12 C11        -3.3503   -0.0493    3.6884 C.ar      1 <0>        -0.1495
     13 C12        -2.3823   -1.0327    3.6187 C.ar      1 <0>        -0.0588
     14 C13        -1.7211   -1.2698    2.4267 C.ar      1 <0>        -0.0903
     15 Br1        -0.4022   -2.6215    2.3302 Br        1 <0>        -0.0294
     16 F1         -4.6010    1.6648    2.6337 F         1 <0>        -0.1327
     17 Br2        -2.4154   -0.1794   -1.4935 Br        1 <0>        -0.1413
     18 O1          3.6975   -0.3532   -0.0350 O.3       1 <0>        -0.2741
     19 C14         4.4479    0.7616   -0.0362 C.2       1 <0>         0.5161
     20 O2          5.7994    0.7849   -0.0497 O.3       1 <0>        -0.6438
     21 N1          3.6818    1.8195   -0.0233 N.2       1 <0>        -0.6099
     22 H2         -0.9610    1.9059    0.0260 H         1 <0>         0.1175
     23 H3          1.1426    3.1750    0.0078 H         1 <0>         0.1217
     24 H4          1.2082   -1.7676   -0.0192 H         1 <0>         0.1174
     25 H5         -3.2256    1.0553    0.4998 H         1 <0>         0.1549
     26 H6         -3.8692    0.1330    4.6179 H         1 <0>         0.1447
     27 H7         -2.1447   -1.6193    4.4938 H         1 <0>         0.1452
@<TRIPOS>BOND
     1    1    6 ar
     2    1    2 ar
     3    1   22 1
     4    2    3 ar
     5    2   23 1
     6    3   21 1
     7    3    4 ar
     8    4    5 ar
     9    4   18 1
    10    5    6 ar
    11    5   24 1
    12    6    7 1
    13    7    8 1
    14    7    9 1
    15    7   17 1
    16    9   14 ar
    17    9   10 ar
    18   10   11 ar
    19   10   25 1
    20   11   12 ar
    21   11   16 1
    22   12   13 ar
    23   12   26 1
    24   13   14 ar
    25   13   27 1
    26   14   15 1
    27   18   19 1
    28   19   20 1
    29   19   21 2
@<TRIPOS>MOLECULE
ZINC15685738
   34    36     0     0     0
SMALL
USER_CHARGES

@<TRIPOS>ATOM
      1 C1          1.1012   -0.1597   -0.5615 C.ar      1 <0>        -0.0880
      2 C2          2.3627    0.3855   -0.7096 C.ar      1 <0>        -0.0938
      3 C3          3.3955   -0.3872   -1.2091 C.ar      1 <0>        -0.0821
      4 C4          3.1654   -1.7052   -1.5603 C.ar      1 <0>        -0.0939
      5 C5          1.9036   -2.2496   -1.4118 C.ar      1 <0>        -0.0883
      6 C6          0.8717   -1.4770   -0.9125 C.ar      1 <0>        -0.0787
      7 C7         -0.5038   -2.0709   -0.7509 C.3       1 <0>         0.0977
      8 O1         -1.2533   -1.8704   -1.9509 O.3       1 <0>        -0.3058
      9 C8         -2.5231   -2.3495   -1.9717 C.ar      1 <0>         0.1375
     10 C9         -3.0379   -2.9957   -0.8531 C.ar      1 <0>        -0.2153
     11 C10        -4.3244   -3.4839   -0.8685 C.ar      1 <0>        -0.0500
     12 C11        -5.1163   -3.3284   -2.0143 C.ar      1 <0>        -0.1102
     13 C12        -4.5922   -2.6758   -3.1384 C.ar      1 <0>        -0.0574
     14 C13        -3.3060   -2.1872   -3.1094 C.ar      1 <0>        -0.1464
     15 C14        -6.4879   -3.8469   -2.0371 C.2       1 <0>         0.0307
     16 C15        -7.3130   -3.5446   -3.0779 C.2       1 <0>        -0.1794
     17 C16        -8.6095   -4.0553   -3.3930 C.2       1 <0>         0.4849
     18 O2         -9.1989   -4.9831   -2.6054 O.3       1 <0>        -0.5819
     19 N1         -9.2062   -3.6074   -4.4513 N.2       1 <0>        -0.6229
     20 C17        -8.6380   -2.6853   -5.2469 C.2       1 <0>         0.3721
     21 S1         -7.0778   -2.3920   -4.4253 S.3       1 <0>        -0.1474
     22 S2         -9.2530   -1.9707   -6.6759 S.2       1 <0>        -0.5319
     23 Br1         5.1215    0.3582   -1.4126 Br        1 <0>        -0.0492
     24 H1          0.2958    0.4422   -0.1673 H         1 <0>         0.1357
     25 H2          2.5418    1.4147   -0.4357 H         1 <0>         0.1363
     26 H3          3.9715   -2.3088   -1.9507 H         1 <0>         0.1362
     27 H4          1.7239   -3.2786   -1.6860 H         1 <0>         0.1356
     28 H5         -0.4172   -3.1389   -0.5507 H         1 <0>         0.0759
     29 H6         -1.0137   -1.5855    0.0813 H         1 <0>         0.0759
     30 H7         -2.4267   -3.1150    0.0293 H         1 <0>         0.1302
     31 H8         -4.7229   -3.9863    0.0006 H         1 <0>         0.1329
     32 H9         -5.1977   -2.5534   -4.0243 H         1 <0>         0.1529
     33 H10        -2.9025   -1.6803   -3.9735 H         1 <0>         0.1354
     34 H11        -6.8437   -4.4684   -1.2287 H         1 <0>         0.1529
@<TRIPOS>BOND
     1    1    6 ar
     2    1    2 ar
     3    1   24 1
     4    2    3 ar
     5    2   25 1
     6    3    4 ar
     7    3   23 1
     8    4    5 ar
     9    4   26 1
    10    5    6 ar
    11    5   27 1
    12    6    7 1
    13    7    8 1
    14    7   28 1
    15    7   29 1
    16    8    9 1
    17    9   14 ar
    18    9   10 ar
    19   10   11 ar
    20   10   30 1
    21   11   12 ar
    22   11   31 1
    23   12   13 ar
    24   12   15 1
    25   13   14 ar
    26   13   32 1
    27   14   33 1
    28   15   16 2
    29   15   34 1
    30   16   21 1
    31   16   17 1
    32   17   18 1
    33   17   19 2
    34   19   20 1
    35   20   21 1
    36   20   22 2
@<TRIPOS>MOLECULE
ZINC18208621
   33    35     0     0     0
SMALL
USER_CHARGES

@<TRIPOS>ATOM
      1 C1         -0.0163    1.3544    0.0095 C.2       1 <0>        -0.1493
      2 C2          1.1738    2.0440    0.0018 C.2       1 <0>        -0.1716
      3 C3          2.3534    1.3199   -0.0133 C.2       1 <0>        -0.0679
      4 S1          1.7510   -0.3608   -0.0166 S.3       1 <0>         0.0918
      5 C4          0.0021   -0.0041    0.0020 C.2       1 <0>        -0.2137
      6 C5          3.7368    1.8063   -0.0243 C.2       1 <0>         0.1129
      7 N1          4.7239    0.9593   -0.0382 N.2       1 <0>        -0.2803
      8 N2          6.0456    1.4239   -0.0487 N.2       1 <0>        -0.4597
      9 C6          7.0805    0.5359   -0.0633 C.2       1 <0>         0.4810
     10 N3          7.0232   -0.7901   -0.0753 N.2       1 <0>        -0.7071
     11 C7          8.0658   -1.5740   -0.0890 C.2       1 <0>         0.5214
     12 O1          7.9682   -2.7858   -0.1000 O.2       1 <0>        -0.5407
     13 C8          9.4148   -0.8650   -0.0906 C.3       1 <0>        -0.1122
     14 H1          9.9909   -1.1034    0.8035 H         1 <0>         0.1238
     15 S2          8.8341    0.8835   -0.0786 S.3       1 <0>        -0.2316
     16 C9         10.2087   -1.1771   -1.3607 C.3       1 <0>        -0.0485
     17 C10        11.5785   -0.5566   -1.2622 C.ar      1 <0>        -0.0582
     18 C11        11.7879    0.7316   -1.7187 C.ar      1 <0>        -0.0859
     19 C12        13.0438    1.3016   -1.6294 C.ar      1 <0>        -0.0970
     20 C13        14.0921    0.5834   -1.0824 C.ar      1 <0>        -0.0364
     21 C14        13.8822   -0.7063   -0.6249 C.ar      1 <0>        -0.0303
     22 C15        12.6233   -1.2735   -0.7104 C.ar      1 <0>        -0.0949
     23 Cl1        15.1968   -1.6091    0.0611 Cl        1 <0>        -0.0556
     24 Cl2        15.6699    1.2987   -0.9705 Cl        1 <0>        -0.0578
     25 H2         -0.9556    1.8872    0.0258 H         1 <0>         0.1265
     26 H3          1.1875    3.1239    0.0071 H         1 <0>         0.1326
     27 H4         -0.8298   -0.6928    0.0063 H         1 <0>         0.1783
     28 H5          3.9360    2.8677   -0.0209 H         1 <0>         0.1142
     29 H6         10.3061   -2.2570   -1.4722 H         1 <0>         0.0968
     30 H7          9.6860   -0.7683   -2.2255 H         1 <0>         0.0881
     31 H8         10.9698    1.2925   -2.1457 H         1 <0>         0.1452
     32 H9         13.2068    2.3076   -1.9868 H         1 <0>         0.1422
     33 H10        12.4579   -2.2781   -0.3500 H         1 <0>         0.1437
@<TRIPOS>BOND
     1    1    5 2
     2    1    2 1
     3    1   25 1
     4    2    3 2
     5    2   26 1
     6    3    4 1
     7    3    6 1
     8    4    5 1
     9    5   27 1
    10    6    7 2
    11    6   28 1
    12    7    8 1
    13    8    9 1
    14    9   15 1
    15    9   10 2
    16   10   11 1
    17   11   12 2
    18   11   13 1
    19   13   14 1
    20   13   15 1
    21   13   16 1
    22   16   17 1
    23   16   29 1
    24   16   30 1
    25   17   22 ar
    26   17   18 ar
    27   18   19 ar
    28   18   31 1
    29   19   20 ar
    30   19   32 1
    31   20   21 ar
    32   20   24 1
    33   21   22 ar
    34   21   23 1
    35   22   33 1
@<TRIPOS>MOLECULE
ZINC20847585
   51    54     0     0     0
SMALL
USER_CHARGES
(5R)-5-(4-dimethylaminophenyl)-3-(indan-2-ylamino)cyclohex-2-en-1-one
@<TRIPOS>ATOM
      1 C1          2.0140    8.4772    0.7782 C.3       1 <0>         0.0896
      2 N1          1.3947    7.6866   -0.2884 N.pl3     1 <0>        -0.6427
      3 C2          0.7685    8.3590   -1.4294 C.3       1 <0>         0.0894
      4 C3          1.4012    6.2916   -0.2173 C.ar      1 <0>         0.2003
      5 C4          1.9945    5.6525    0.8639 C.ar      1 <0>        -0.1992
      6 C5          1.9996    4.2730    0.9308 C.ar      1 <0>        -0.0695
      7 C6          1.4149    3.5282   -0.0771 C.ar      1 <0>        -0.1163
      8 C7          0.8284    4.1612   -1.1576 C.ar      1 <0>        -0.0644
      9 C8          0.8148    5.5404   -1.2280 C.ar      1 <0>        -0.1977
     10 C9          1.4224    2.0232   -0.0007 C.3       1 <0>        -0.0285
     11 H1          1.9421    1.7277    0.9226 H         1 <0>         0.0737
     12 C10         2.1457    1.4510   -1.2234 C.3       1 <0>        -0.0531
     13 C11         2.0911   -0.0527   -1.1799 C.2       1 <0>         0.2474
     14 C12         1.0596   -0.6981   -0.5940 C.2       1 <0>        -0.5431
     15 C13         0.0021   -0.0041    0.0020 C.2       1 <0>         0.3791
     16 O1         -0.9089   -0.6215    0.5176 O.3       1 <0>        -0.5997
     17 C14        -0.0184    1.5027    0.0103 C.3       1 <0>        -0.1462
     18 N2          3.1001   -0.7755   -1.7421 N.2       1 <0>        -0.7041
     19 C15         3.0598   -2.2395   -1.7076 C.3       1 <0>         0.0916
     20 C16         3.7327   -2.7769   -0.4267 C.3       1 <0>        -0.0828
     21 C17         4.4201   -4.0601   -0.8524 C.ar      1 <0>        -0.0802
     22 C18         4.9018   -5.1132   -0.0927 C.ar      1 <0>        -0.1149
     23 C19         5.4969   -6.1978   -0.7064 C.ar      1 <0>        -0.1297
     24 C20         5.6127   -6.2335   -2.0836 C.ar      1 <0>        -0.1314
     25 C21         5.1329   -5.1844   -2.8429 C.ar      1 <0>        -0.1146
     26 C22         4.5358   -4.0958   -2.2293 C.ar      1 <0>        -0.0840
     27 C23         3.9388   -2.8391   -2.8257 C.3       1 <0>        -0.0641
     28 H2          2.4277    7.8022    1.5419 H         1 <0>         0.0792
     29 H3          1.2571    9.1302    1.2372 H         1 <0>         0.0493
     30 H4          2.8221    9.0928    0.3563 H         1 <0>         0.0496
     31 H5          0.3615    7.6061   -2.1204 H         1 <0>         0.0798
     32 H6          1.5194    8.9692   -1.9527 H         1 <0>         0.0497
     33 H7         -0.0456    9.0066   -1.0717 H         1 <0>         0.0494
     34 H8          2.4510    6.2336    1.6515 H         1 <0>         0.1191
     35 H9          2.4611    3.7755    1.7709 H         1 <0>         0.1196
     36 H10         0.3768    3.5764   -1.9453 H         1 <0>         0.1217
     37 H11         0.3526    6.0342   -2.0699 H         1 <0>         0.1196
     38 H12         1.6554    1.8095   -2.1405 H         1 <0>         0.0657
     39 H13         3.1952    1.7804   -1.2160 H         1 <0>         0.0669
     40 H14         1.0653   -1.7981   -0.5934 H         1 <0>         0.0882
     41 H15        -0.5308    1.8610    0.9153 H         1 <0>         0.0643
     42 H16        -0.5480    1.8707   -0.8808 H         1 <0>         0.0722
     43 H17         1.9856   -2.4601   -1.7942 H         1 <0>         0.0535
     44 H18         4.4537   -2.0352   -0.0525 H         1 <0>         0.0785
     45 H19         2.9661   -2.9623    0.3401 H         1 <0>         0.0632
     46 H20         4.8118   -5.0860    0.9832 H         1 <0>         0.1147
     47 H21         5.8713   -7.0175   -0.1111 H         1 <0>         0.1165
     48 H22         6.0775   -7.0811   -2.5652 H         1 <0>         0.1164
     49 H23         5.2233   -5.2132   -3.9187 H         1 <0>         0.1146
     50 H24         3.3137   -3.0648   -3.7022 H         1 <0>         0.0588
     51 H25         4.7179   -2.1155   -3.1075 H         1 <0>         0.0844
@<TRIPOS>BOND
     1    1    2 1
     2    1   28 1
     3    1   29 1
     4    1   30 1
     5    2    3 1
     6    2    4 1
     7    3   31 1
     8    3   32 1
     9    3   33 1
    10    4    9 ar
    11    4    5 ar
    12    5    6 ar
    13    5   34 1
    14    6    7 ar
    15    6   35 1
    16    7    8 ar
    17    7   10 1
    18    8    9 ar
    19    8   36 1
    20    9   37 1
    21   10   11 1
    22   10   17 1
    23   10   12 1
    24   12   13 1
    25   12   38 1
    26   12   39 1
    27   13   14 1
    28   13   18 2
    29   14   15 2
    30   14   40 1
    31   15   16 1
    32   15   17 1
    33   17   41 1
    34   17   42 1
    35   18   19 1
    36   19   27 1
    37   19   20 1
    38   19   43 1
    39   20   21 1
    40   20   44 1
    41   20   45 1
    42   21   26 ar
    43   21   22 ar
    44   22   23 ar
    45   22   46 1
    46   23   24 ar
    47   23   47 1
    48   24   25 ar
    49   24   48 1
    50   25   26 ar
    51   25   49 1
    52   26   27 1
    53   27   50 1
    54   27   51 1
@<TRIPOS>MOLECULE
ZINC06519476
   35    37     0     0     0
SMALL
USER_CHARGES

@<TRIPOS>ATOM
      1 C1         -0.0187    1.5258    0.0104 C.3       1 <0>        -0.1335
      2 C2          0.0021   -0.0041    0.0020 C.3       1 <0>        -0.0072
      3 C3          0.7074   -0.4901   -1.2379 C.2       1 <0>        -0.4285
      4 C4          2.0537   -0.8029   -1.1980 C.2       1 <0>         0.3258
      5 O1          2.7587   -0.6782   -0.0481 O.3       1 <0>        -0.6825
      6 C5          2.6769   -1.2545   -2.3783 C.2       1 <0>        -0.2059
      7 C6          1.9592   -1.3732   -3.5153 C.2       1 <0>         0.1172
      8 N1          0.6351   -1.0660   -3.5561 N.am      1 <0>        -0.4722
      9 C7          0.0066   -0.6345   -2.4370 C.2       1 <0>         0.5319
     10 O2         -1.1837   -0.3644   -2.4780 O.2       1 <0>        -0.5966
     11 C8          0.1066   -1.2681   -4.8413 C.ar      1 <0>         0.1630
     12 C9         -1.1880   -1.0799   -5.3217 C.ar      1 <0>        -0.1125
     13 C10        -1.4810   -1.3473   -6.6429 C.ar      1 <0>        -0.0835
     14 C11        -0.4940   -1.8033   -7.4994 C.ar      1 <0>        -0.0640
     15 C12         0.7942   -1.9921   -7.0275 C.ar      1 <0>        -0.0614
     16 C13         1.0876   -1.7252   -5.7080 C.ar      1 <0>        -0.1229
     17 C14         2.3617   -1.8249   -4.9028 C.3       1 <0>         0.0177
     18 C15         3.4331   -0.8968   -5.4785 C.3       1 <0>        -0.1284
     19 C16         2.8637   -3.2699   -4.8712 C.3       1 <0>        -0.1284
     20 Cl1        -0.8701   -2.1383   -9.1608 Cl        1 <0>        -0.0777
     21 H1          1.0039    1.9031    0.0027 H         1 <0>         0.0446
     22 H2         -0.5459    1.8868   -0.8726 H         1 <0>         0.0412
     23 H3         -0.5289    1.8773    0.9072 H         1 <0>         0.0329
     24 H4          0.5293   -0.3651    0.8851 H         1 <0>         0.0561
     25 H5         -1.0205   -0.3814    0.0098 H         1 <0>         0.0403
     26 H6          3.7274   -1.5049   -2.3733 H         1 <0>         0.1285
     27 H7         -1.9630   -0.7247   -4.6587 H         1 <0>         0.1485
     28 H8         -2.4858   -1.2003   -7.0108 H         1 <0>         0.1367
     29 H9          1.5673   -2.3481   -7.6924 H         1 <0>         0.1345
     30 H10         4.3112   -0.9110   -4.8329 H         1 <0>         0.0691
     31 H11         3.7103   -1.2367   -6.4764 H         1 <0>         0.0643
     32 H12         3.0412    0.1187   -5.5365 H         1 <0>         0.0596
     33 H13         2.0716   -3.9217   -4.5025 H         1 <0>         0.0597
     34 H14         3.1486   -3.5777   -5.8773 H         1 <0>         0.0643
     35 H15         3.7284   -3.3398   -4.2113 H         1 <0>         0.0692
@<TRIPOS>BOND
     1    1    2 1
     2    1   21 1
     3    1   22 1
     4    1   23 1
     5    2   24 1
     6    2   25 1
     7    2    3 1
     8    3    4 2
     9    3    9 1
    10    4    6 1
    11    4    5 1
    12    6    7 2
    13    6   26 1
    14    7    8 1
    15    7   17 1
    16    8   11 1
    17    8    9 am
    18    9   10 2
    19   11   16 ar
    20   11   12 ar
    21   12   13 ar
    22   12   27 1
    23   13   14 ar
    24   13   28 1
    25   14   15 ar
    26   14   20 1
    27   15   16 ar
    28   15   29 1
    29   16   17 1
    30   17   18 1
    31   17   19 1
    32   18   30 1
    33   18   31 1
    34   18   32 1
    35   19   33 1
    36   19   34 1
    37   19   35 1
@<TRIPOS>MOLECULE
ZINC41977142
   36    38     0     0     0
SMALL
USER_CHARGES

@<TRIPOS>ATOM
      1 C1          5.3583   -6.5886   -2.0618 C.3       1 <0>        -0.1072
      2 C2          4.0358   -6.0757   -1.5529 C.ar      1 <0>        -0.1088
      3 C3          3.1561   -5.4555   -2.4213 C.ar      1 <0>        -0.1072
      4 C4          1.9436   -4.9839   -1.9584 C.ar      1 <0>        -0.1051
      5 C5          1.6076   -5.1335   -0.6182 C.ar      1 <0>        -0.0971
      6 C6          2.4940   -5.7576    0.2514 C.ar      1 <0>        -0.1381
      7 C7          3.7024   -6.2314   -0.2197 C.ar      1 <0>        -0.1019
      8 S1          0.0619   -4.5328   -0.0229 S.3       1 <0>        -0.0452
      9 C8         -0.0000   -5.1085    1.6962 C.3       1 <0>        -0.0767
     10 C9          0.0901   -6.6363    1.7253 C.3       1 <0>        -0.1438
     11 C10         0.3336   -7.0771    3.1743 C.3       1 <0>         0.0511
     12 O1          1.6101   -6.5857    3.5857 O.3       1 <0>        -0.3208
     13 C11         1.8882   -5.2752    3.3607 C.ar      1 <0>         0.1403
     14 C12         1.1540   -4.5170    2.4652 C.ar      1 <0>        -0.1179
     15 C13         1.4764   -3.1855    2.2638 C.ar      1 <0>        -0.0719
     16 C14         2.5254   -2.6099    2.9542 C.ar      1 <0>        -0.1561
     17 C15         3.2586   -3.3639    3.8514 C.ar      1 <0>        -0.0946
     18 C16         2.9428   -4.6918    4.0553 C.ar      1 <0>        -0.1583
     19 C17        -1.2980   -4.6715    2.3249 C.2       1 <0>         0.5287
     20 O2         -2.1058   -4.0314    1.6736 O.co2     1 <0>        -0.6614
     21 O3         -1.5404   -4.9582    3.4849 O.co2     1 <0>        -0.6637
     22 H1          5.2431   -7.6187   -2.3989 H         1 <0>         0.0644
     23 H2          5.6922   -5.9691   -2.8942 H         1 <0>         0.0617
     24 H3          6.0961   -6.5489   -1.2605 H         1 <0>         0.0618
     25 H4          3.4178   -5.3396   -3.4626 H         1 <0>         0.1194
     26 H5          1.2574   -4.4991   -2.6370 H         1 <0>         0.1229
     27 H6          2.2362   -5.8756    1.2935 H         1 <0>         0.1403
     28 H7          4.3900   -6.7201    0.4547 H         1 <0>         0.1167
     29 H8         -0.8435   -7.0663    1.3624 H         1 <0>         0.0867
     30 H9          0.9166   -6.9676    1.0966 H         1 <0>         0.0768
     31 H10        -0.4433   -6.6657    3.8188 H         1 <0>         0.1082
     32 H11         0.3225   -8.1654    3.2338 H         1 <0>         0.0984
     33 H12         0.9052   -2.5944    1.5633 H         1 <0>         0.1311
     34 H13         2.7724   -1.5709    2.7933 H         1 <0>         0.1196
     35 H14         4.0782   -2.9142    4.3921 H         1 <0>         0.1225
     36 H15         3.5161   -5.2799    4.7567 H         1 <0>         0.1252
@<TRIPOS>BOND
     1    1    2 1
     2    1   22 1
     3    1   23 1
     4    1   24 1
     5    2    7 ar
     6    2    3 ar
     7    3    4 ar
     8    3   25 1
     9    4    5 ar
    10    4   26 1
    11    5    6 ar
    12    5    8 1
    13    6    7 ar
    14    6   27 1
    15    7   28 1
    16    8    9 1
    17    9   14 1
    18    9   10 1
    19    9   19 1
    20   10   11 1
    21   10   29 1
    22   10   30 1
    23   11   12 1
    24   11   31 1
    25   11   32 1
    26   12   13 1
    27   13   18 ar
    28   13   14 ar
    29   14   15 ar
    30   15   16 ar
    31   15   33 1
    32   16   17 ar
    33   16   34 1
    34   17   18 ar
    35   17   35 1
    36   18   36 1
    37   19   20 2
    38   19   21 1
@<TRIPOS>MOLECULE
ZINC48652843
   29    30     0     0     0
SMALL
USER_CHARGES

@<TRIPOS>ATOM
      1 C1         -0.0184    1.5028    0.0103 C.3       1 <0>        -0.1643
      2 C2          0.0021   -0.0041    0.0020 C.ar      1 <0>         0.0404
      3 C3          0.0058   -0.6885   -1.1990 C.ar      1 <0>        -0.1424
      4 C4          0.0250   -2.0717   -1.2065 C.ar      1 <0>         0.0092
      5 C5          0.0405   -2.7693   -0.0115 C.ar      1 <0>        -0.1463
      6 C6          0.0368   -2.0839    1.1885 C.ar      1 <0>        -0.0138
      7 C7          0.0229   -0.7014    1.1952 C.ar      1 <0>        -0.6220
      8 S1          0.0255    0.1719    2.7256 S.o2      1 <0>         2.6090
      9 O1         -1.0141    1.1372    2.6442 O.2       1 <0>        -1.0202
     10 O2          0.0757   -0.8088    3.7527 O.2       1 <0>        -1.0250
     11 N1          1.4487    1.0147    2.8060 N.2       1 <0>        -1.0783
     12 C8          1.7293    1.8079    3.9226 C.ar      1 <0>         0.2979
     13 C9          0.8175    1.8851    4.9675 C.ar      1 <0>        -0.2481
     14 C10         1.0956    2.6691    6.0703 C.ar      1 <0>        -0.0662
     15 C11         2.2823    3.3787    6.1354 C.ar      1 <0>        -0.0510
     16 C12         3.1946    3.3041    5.0938 C.ar      1 <0>         0.1095
     17 C13         2.9223    2.5148    3.9909 C.ar      1 <0>        -0.1935
     18 F1          4.3521    3.9977    5.1588 F         1 <0>        -0.1442
     19 F2          2.5518    4.1451    7.2148 F         1 <0>        -0.1534
     20 Cl1         0.0291   -2.9319   -2.7143 Cl        1 <0>        -0.0740
     21 H1          1.0042    1.8801    0.0026 H         1 <0>         0.0947
     22 H2         -0.5455    1.8639   -0.8728 H         1 <0>         0.0714
     23 H3         -0.5286    1.8543    0.9071 H         1 <0>         0.1127
     24 H4         -0.0067   -0.1435   -2.1313 H         1 <0>         0.1371
     25 H5          0.0552   -3.8492   -0.0167 H         1 <0>         0.1370
     26 H6          0.0485   -2.6283    2.1212 H         1 <0>         0.1486
     27 H7         -0.1091    1.3325    4.9176 H         1 <0>         0.1127
     28 H8          0.3862    2.7288    6.8825 H         1 <0>         0.1269
     29 H9          3.6346    2.4526    3.1815 H         1 <0>         0.1356
@<TRIPOS>BOND
     1    1    2 1
     2    1   21 1
     3    1   22 1
     4    1   23 1
     5    2    7 ar
     6    2    3 ar
     7    3    4 ar
     8    3   24 1
     9    4    5 ar
    10    4   20 1
    11    5    6 ar
    12    5   25 1
    13    6    7 ar
    14    6   26 1
    15    7    8 1
    16    8    9 2
    17    8   10 2
    18    8   11 1
    19   11   12 1
    20   12   17 ar
    21   12   13 ar
    22   13   14 ar
    23   13   27 1
    24   14   15 ar
    25   14   28 1
    26   15   16 ar
    27   15   19 1
    28   16   17 ar
    29   16   18 1
    30   17   29 1
@<TRIPOS>MOLECULE
ZINC13635430
   42    44     0     0     0
SMALL
USER_CHARGES

@<TRIPOS>ATOM
      1 C1         -0.1292    1.3961   -0.8926 C.3       1 <0>        -0.1102
      2 C2         -0.0945   -0.1041   -0.7543 C.ar      1 <0>        -0.1022
      3 C3         -0.1247   -0.9031   -1.8820 C.ar      1 <0>        -0.1202
      4 C4         -0.0929   -2.2792   -1.7551 C.ar      1 <0>        -0.1149
      5 C5         -0.0304   -2.8564   -0.5006 C.ar      1 <0>        -0.0666
      6 C6          0.0007   -2.0574    0.6271 C.ar      1 <0>        -0.1103
      7 C7         -0.0268   -0.6812    0.5000 C.ar      1 <0>        -0.1196
      8 C8          0.0033   -4.3567   -0.3622 C.3       1 <0>        -0.0355
      9 H1         -0.0289   -4.8153   -1.3505 H         1 <0>         0.0781
     10 C9          1.2882   -4.7767    0.3565 C.3       1 <0>        -0.1117
     11 C10         1.2927   -6.2692    0.5501 C.2       1 <0>         0.2867
     12 C11         0.1530   -6.9552    0.6937 C.2       1 <0>        -0.4297
     13 C12        -1.1075   -6.3138    0.6664 C.2       1 <0>         0.2705
     14 N1         -2.1916   -7.0138    0.8186 N.2       1 <0>        -0.6173
     15 C13        -3.4891   -6.3416    0.9224 C.3       1 <0>         0.0794
     16 C14        -4.3383   -6.7018   -0.2693 C.ar      1 <0>        -0.0573
     17 C15        -4.2843   -5.9303   -1.4150 C.ar      1 <0>        -0.1181
     18 C16        -5.0633   -6.2608   -2.5082 C.ar      1 <0>        -0.1217
     19 C17        -5.8959   -7.3630   -2.4557 C.ar      1 <0>        -0.1351
     20 C18        -5.9492   -8.1350   -1.3102 C.ar      1 <0>        -0.1235
     21 C19        -5.1670   -7.8070   -0.2186 C.ar      1 <0>        -0.1073
     22 C20        -1.2024   -4.8235    0.4598 C.3       1 <0>        -0.1216
     23 O1          2.4703   -6.9290    0.5799 O.3       1 <0>        -0.7119
     24 H2          0.8888    1.7773   -0.9724 H         1 <0>         0.0661
     25 H3         -0.6893    1.6656   -1.7880 H         1 <0>         0.0621
     26 H4         -0.6123    1.8306   -0.0174 H         1 <0>         0.0624
     27 H5         -0.1736   -0.4521   -2.8621 H         1 <0>         0.1170
     28 H6         -0.1172   -2.9034   -2.6361 H         1 <0>         0.1204
     29 H7          0.0492   -2.5084    1.6072 H         1 <0>         0.1219
     30 H8          0.0013   -0.0569    1.3809 H         1 <0>         0.1175
     31 H9          2.1511   -4.4858   -0.2426 H         1 <0>         0.0660
     32 H10         1.3383   -4.2848    1.3279 H         1 <0>         0.0685
     33 H11         0.1965   -8.0252    0.8335 H         1 <0>         0.0941
     34 H12        -3.9912   -6.6600    1.8360 H         1 <0>         0.0656
     35 H13        -3.3381   -5.2624    0.9480 H         1 <0>         0.0392
     36 H14        -3.6338   -5.0692   -1.4561 H         1 <0>         0.1146
     37 H15        -5.0216   -5.6576   -3.4031 H         1 <0>         0.1158
     38 H16        -6.5050   -7.6208   -3.3094 H         1 <0>         0.1149
     39 H17        -6.6000   -8.9959   -1.2691 H         1 <0>         0.1163
     40 H18        -5.2059   -8.4123    0.6749 H         1 <0>         0.1194
     41 H19        -1.2002   -4.3223    1.4277 H         1 <0>         0.0714
     42 H20        -2.1223   -4.5850   -0.0741 H         1 <0>         0.0669
@<TRIPOS>BOND
     1    1    2 1
     2    1   24 1
     3    1   25 1
     4    1   26 1
     5    2    7 ar
     6    2    3 ar
     7    3    4 ar
     8    3   27 1
     9    4    5 ar
    10    4   28 1
    11    5    6 ar
    12    5    8 1
    13    6    7 ar
    14    6   29 1
    15    7   30 1
    16    8    9 1
    17    8   22 1
    18    8   10 1
    19   10   31 1
    20   10   32 1
    21   10   11 1
    22   11   23 1
    23   11   12 2
    24   12   33 1
    25   12   13 1
    26   13   22 1
    27   13   14 2
    28   14   15 1
    29   15   16 1
    30   15   34 1
    31   15   35 1
    32   16   21 ar
    33   16   17 ar
    34   17   18 ar
    35   17   36 1
    36   18   19 ar
    37   18   37 1
    38   19   20 ar
    39   19   38 1
    40   20   21 ar
    41   20   39 1
    42   21   40 1
    43   22   41 1
    44   22   42 1
@<TRIPOS>MOLECULE
ZINC05076615
   31    33     0     0     0
SMALL
USER_CHARGES
(5Z)-5-[(2,4-dichlorophenyl)methylene]-3-phenyl-2-sulfanyl-imidazol-4-one
@<TRIPOS>ATOM
      1 C1          5.5430   -5.8517    0.5729 C.ar      1 <0>        -0.1207
      2 C2          5.7650   -4.9655   -0.4651 C.ar      1 <0>        -0.1139
      3 C3          4.9988   -3.8215   -0.5741 C.ar      1 <0>        -0.1068
      4 C4          4.0049   -3.5618    0.3597 C.ar      1 <0>         0.1604
      5 C5          3.7878   -4.4508    1.4037 C.ar      1 <0>        -0.0867
      6 C6          4.5540   -5.5955    1.5048 C.ar      1 <0>        -0.1118
      7 N1          3.2259   -2.4013    0.2520 N.am      1 <0>        -0.5382
      8 C7          3.6663   -1.1349    0.4189 C.2       1 <0>         0.5161
      9 O1          4.7982   -0.7777    0.6885 O.2       1 <0>        -0.4901
     10 C8          2.4848   -0.2766    0.2088 C.2       1 <0>         0.0359
     11 C9          2.4357    1.0864    0.2763 C.2       1 <0>        -0.0817
     12 C10         1.1464    1.7794    0.1830 C.ar      1 <0>        -0.0215
     13 C11         0.0233    1.1125   -0.3237 C.ar      1 <0>        -0.0733
     14 C12        -1.1826    1.7721   -0.4134 C.ar      1 <0>        -0.1089
     15 C13        -1.2902    3.0892    0.0057 C.ar      1 <0>        -0.0324
     16 C14        -0.1855    3.7568    0.5081 C.ar      1 <0>        -0.1120
     17 C15         1.0311    3.1127    0.5999 C.ar      1 <0>        -0.0240
     18 Cl1         2.4146    3.9507    1.2303 Cl        1 <0>        -0.0641
     19 Cl2        -2.8168    3.9082   -0.1052 Cl        1 <0>        -0.0746
     20 N2          1.4507   -1.1246   -0.0731 N.2       1 <0>        -0.5567
     21 C16         1.8855   -2.3573   -0.0469 C.2       1 <0>         0.5074
     22 S1          0.8847   -3.7747   -0.3535 S.3       1 <0>        -0.7272
     23 H1          6.1433   -6.7456    0.6561 H         1 <0>         0.1224
     24 H2          6.5382   -5.1683   -1.1914 H         1 <0>         0.1246
     25 H3          5.1725   -3.1299   -1.3852 H         1 <0>         0.1194
     26 H4          3.0182   -4.2491    2.1342 H         1 <0>         0.1245
     27 H5          4.3831   -6.2893    2.3146 H         1 <0>         0.1256
     28 H6          3.3631    1.6647    0.4007 H         1 <0>         0.1425
     29 H7          0.1040    0.0853   -0.6474 H         1 <0>         0.1901
     30 H8         -2.0480    1.2603   -0.8077 H         1 <0>         0.1374
     31 H9         -0.2767    4.7842    0.8283 H         1 <0>         0.1381
@<TRIPOS>BOND
     1    1    6 ar
     2    1    2 ar
     3    1   23 1
     4    2    3 ar
     5    2   24 1
     6    3    4 ar
     7    3   25 1
     8    4    5 ar
     9    4    7 1
    10    5    6 ar
    11    5   26 1
    12    6   27 1
    13    7   21 1
    14    7    8 am
    15    8    9 2
    16    8   10 1
    17   10   11 2
    18   10   20 1
    19   11   12 1
    20   11   28 1
    21   12   17 ar
    22   12   13 ar
    23   13   14 ar
    24   13   29 1
    25   14   15 ar
    26   14   30 1
    27   15   16 ar
    28   15   19 1
    29   16   17 ar
    30   16   31 1
    31   17   18 1
    32   20   21 2
    33   21   22 1
@<TRIPOS>MOLECULE
ZINC05393256
   41    43     0     0     0
SMALL
USER_CHARGES

@<TRIPOS>ATOM
      1 C1         -0.0187    1.5258    0.0104 C.3       1 <0>        -0.1546
      2 C2          0.0021   -0.0041    0.0020 C.3       1 <0>        -0.1269
      3 C3         -1.4333   -0.5336    0.0129 C.3       1 <0>        -0.1146
      4 C4         -1.4126   -2.0635    0.0045 C.3       1 <0>        -0.0889
      5 H1         -0.8270   -2.4181   -0.8438 H         1 <0>         0.0753
      6 C5         -2.8456   -2.5989   -0.0973 C.3       1 <0>        -0.1155
      7 C6         -2.7820   -4.1045   -0.3448 C.3       1 <0>        -0.0675
      8 C7         -1.8896   -4.7712    0.6709 C.ar      1 <0>         0.1387
      9 C8         -0.9741   -4.0675    1.4214 C.ar      1 <0>        -0.1230
     10 C9         -0.1744   -4.7481    2.3370 C.ar      1 <0>        -0.0764
     11 C10        -0.3249   -6.1148    2.4721 C.ar      1 <0>        -0.1633
     12 C11        -1.2737   -6.7657    1.6854 C.ar      1 <0>         0.1648
     13 N1         -2.0118   -6.0824    0.8250 N.ar      1 <0>        -0.4578
     14 C12        -1.4571   -8.2310    1.8130 C.ar      1 <0>        -0.0618
     15 C13        -0.6876   -8.9562    2.7208 C.ar      1 <0>        -0.0813
     16 C14        -0.8617  -10.3198    2.8361 C.ar      1 <0>        -0.1034
     17 C15        -1.7994  -10.9719    2.0524 C.ar      1 <0>        -0.0663
     18 C16        -2.5677  -10.2622    1.1484 C.ar      1 <0>        -0.1250
     19 C17        -2.4072   -8.8910    1.0271 C.ar      1 <0>         0.1539
     20 O1         -3.1658   -8.1915    0.1441 O.3       1 <0>        -0.4666
     21 Br1        -2.0291  -12.8415    2.2193 Br        1 <0>        -0.0404
     22 C18        -0.7974   -2.5769    1.3050 C.3       1 <0>        -0.0727
     23 H2          1.0039    1.9031    0.0027 H         1 <0>         0.0534
     24 H3         -0.5459    1.8868   -0.8726 H         1 <0>         0.0537
     25 H4         -0.5289    1.8773    0.9072 H         1 <0>         0.0535
     26 H5          0.5123   -0.3556   -0.8948 H         1 <0>         0.0609
     27 H6          0.5293   -0.3651    0.8851 H         1 <0>         0.0621
     28 H7         -1.9435   -0.1821    0.9097 H         1 <0>         0.0638
     29 H8         -1.9605   -0.1726   -0.8702 H         1 <0>         0.0658
     30 H9         -3.3778   -2.4022    0.8334 H         1 <0>         0.0673
     31 H10        -3.3612   -2.1124   -0.9253 H         1 <0>         0.0755
     32 H11        -3.7855   -4.5236   -0.2717 H         1 <0>         0.0874
     33 H12        -2.3884   -4.2881   -1.3446 H         1 <0>         0.0833
     34 H13         0.5521   -4.2153    2.9325 H         1 <0>         0.1363
     35 H14         0.2814   -6.6684    3.1737 H         1 <0>         0.1369
     36 H15         0.0447   -8.4512    3.3333 H         1 <0>         0.1402
     37 H16        -0.2646  -10.8809    3.5396 H         1 <0>         0.1403
     38 H17        -3.2968  -10.7760    0.5394 H         1 <0>         0.1427
     39 H18         0.2661   -2.3383    1.3183 H         1 <0>         0.0784
     40 H19        -1.2849   -2.0905    2.1498 H         1 <0>         0.0797
     41 H20        -2.7766   -8.1194   -0.7381 H         1 <0>         0.3921
@<TRIPOS>BOND
     1    1    2 1
     2    1   23 1
     3    1   24 1
     4    1   25 1
     5    2    3 1
     6    2   26 1
     7    2   27 1
     8    3    4 1
     9    3   28 1
    10    3   29 1
    11    4    5 1
    12    4   22 1
    13    4    6 1
    14    6    7 1
    15    6   30 1
    16    6   31 1
    17    7    8 1
    18    7   32 1
    19    7   33 1
    20    8   13 ar
    21    8    9 ar
    22    9   10 ar
    23    9   22 1
    24   10   11 ar
    25   10   34 1
    26   11   12 ar
    27   11   35 1
    28   12   13 ar
    29   12   14 1
    30   14   19 ar
    31   14   15 ar
    32   15   16 ar
    33   15   36 1
    34   16   17 ar
    35   16   37 1
    36   17   18 ar
    37   17   21 1
    38   18   19 ar
    39   18   38 1
    40   19   20 1
    41   20   41 1
    42   22   39 1
    43   22   40 1
@<TRIPOS>MOLECULE
ZINC41977956
   37    38     0     0     0
SMALL
USER_CHARGES

@<TRIPOS>ATOM
      1 C1          0.4723    1.5219   -0.1540 C.3       1 <0>        -0.1048
      2 C2          0.3657    0.0190   -0.1231 C.ar      1 <0>        -0.1053
      3 C3          0.1219   -0.6796   -1.2919 C.ar      1 <0>        -0.1171
      4 C4          0.0236   -2.0564   -1.2675 C.ar      1 <0>        -0.0891
      5 C5          0.1698   -2.7407   -0.0665 C.ar      1 <0>        -0.0571
      6 C6          0.4146   -2.0357    1.1056 C.ar      1 <0>        -0.0810
      7 C7          0.5173   -0.6588    1.0726 C.ar      1 <0>        -0.1168
      8 C8          0.5735   -2.7730    2.4103 C.3       1 <0>        -0.1083
      9 S1          0.0446   -4.4979   -0.0303 S.3       1 <0>        -0.0955
     10 C9         -0.0934   -4.9641   -1.7780 C.3       1 <0>        -0.0877
     11 C10         1.1429   -4.4754   -2.5353 C.3       1 <0>        -0.1403
     12 C11        -0.1919   -6.4635   -1.8916 C.ar      1 <0>        -0.0203
     13 C12         0.7643   -7.1674   -2.5994 C.ar      1 <0>        -0.1124
     14 C13         0.6740   -8.5428   -2.7037 C.ar      1 <0>        -0.1249
     15 C14        -0.3725   -9.2145   -2.0997 C.ar      1 <0>        -0.1325
     16 C15        -1.3282   -8.5107   -1.3911 C.ar      1 <0>        -0.1218
     17 C16        -1.2355   -7.1357   -1.2833 C.ar      1 <0>        -0.1006
     18 C17        -1.3272   -4.3333   -2.3702 C.2       1 <0>         0.5072
     19 O1         -2.0468   -3.6340   -1.6776 O.co2     1 <0>        -0.6595
     20 O2         -1.6059   -4.5222   -3.5420 O.co2     1 <0>        -0.6752
     21 H1          1.5086    1.8090   -0.3323 H         1 <0>         0.0622
     22 H2         -0.1561    1.9144   -0.9535 H         1 <0>         0.0611
     23 H3          0.1416    1.9293    0.8014 H         1 <0>         0.0597
     24 H4          0.0080   -0.1472   -2.2247 H         1 <0>         0.1148
     25 H5         -0.1671   -2.6012   -2.1803 H         1 <0>         0.1391
     26 H6          0.7119   -0.1105    1.9824 H         1 <0>         0.1159
     27 H7          1.6232   -3.0262    2.5590 H         1 <0>         0.0668
     28 H8          0.2330   -2.1395    3.2294 H         1 <0>         0.0622
     29 H9         -0.0207   -3.6864    2.3861 H         1 <0>         0.0696
     30 H10         2.0218   -5.0152   -2.1829 H         1 <0>         0.0575
     31 H11         1.0099   -4.6548   -3.6022 H         1 <0>         0.0713
     32 H12         1.2778   -3.4080   -2.3604 H         1 <0>         0.0644
     33 H13         1.5819   -6.6426   -3.0713 H         1 <0>         0.1239
     34 H14         1.4207   -9.0926   -3.2573 H         1 <0>         0.1170
     35 H15        -0.4435  -10.2890   -2.1817 H         1 <0>         0.1153
     36 H16        -2.1460   -9.0355   -0.9195 H         1 <0>         0.1178
     37 H17        -1.9802   -6.5863   -0.7265 H         1 <0>         0.1243
@<TRIPOS>BOND
     1    1    2 1
     2    1   21 1
     3    1   22 1
     4    1   23 1
     5    2    7 ar
     6    2    3 ar
     7    3    4 ar
     8    3   24 1
     9    4    5 ar
    10    4   25 1
    11    5    6 ar
    12    5    9 1
    13    6    7 ar
    14    6    8 1
    15    7   26 1
    16    8   27 1
    17    8   28 1
    18    8   29 1
    19    9   10 1
    20   10   11 1
    21   10   12 1
    22   10   18 1
    23   11   30 1
    24   11   31 1
    25   11   32 1
    26   12   17 ar
    27   12   13 ar
    28   13   14 ar
    29   13   33 1
    30   14   15 ar
    31   14   34 1
    32   15   16 ar
    33   15   35 1
    34   16   17 ar
    35   16   36 1
    36   17   37 1
    37   18   19 2
    38   18   20 1
@<TRIPOS>MOLECULE
ZINC44491332
   34    36     0     0     0
SMALL
USER_CHARGES

@<TRIPOS>ATOM
      1 C1          0.7392    0.8697   -0.3336 C.3       1 <0>        -0.1861
      2 C2          0.1305   -0.3904    0.2849 C.3       1 <0>         0.1387
      3 C3          0.7851   -0.6601    1.6412 C.3       1 <0>        -0.1911
      4 N1         -1.3102   -0.1977    0.4676 N.pl3     1 <0>        -0.4996
      5 C4         -2.3182   -0.8870   -0.1790 C.ar      1 <0>         0.0314
      6 C5         -2.3374   -1.8978   -1.1298 C.ar      1 <0>        -0.1102
      7 C6         -3.5445   -2.3846   -1.5857 C.ar      1 <0>        -0.1270
      8 C7         -4.7387   -1.8708   -1.1004 C.ar      1 <0>        -0.1372
      9 C8         -4.7400   -0.8755   -0.1648 C.ar      1 <0>        -0.0729
     10 C9         -3.5281   -0.3662    0.3128 C.ar      1 <0>         0.0550
     11 N2         -3.2131    0.5943    1.2158 N.2       1 <0>        -0.4587
     12 C10        -1.9095    0.6949    1.3153 C.2       1 <0>         0.3814
     13 C11        -1.1950    1.6329    2.2054 C.ar      1 <0>        -0.2104
     14 C12         0.1935    1.7530    2.1284 C.ar      1 <0>        -0.0754
     15 C13         0.8551    2.6302    2.9611 C.ar      1 <0>        -0.2487
     16 C14         0.1472    3.3936    3.8755 C.ar      1 <0>        -0.0107
     17 C15        -1.2282    3.2833    3.9610 C.ar      1 <0>        -0.2263
     18 C16        -1.9080    2.4102    3.1267 C.ar      1 <0>         0.3080
     19 O1         -3.2592    2.3046    3.2061 O.3       1 <0>        -0.6523
     20 Br1         1.0672    4.5921    5.0126 Br        1 <0>        -0.1030
     21 H1          1.7978    0.9242   -0.0796 H         1 <0>         0.0778
     22 H2          0.6270    0.8333   -1.4172 H         1 <0>         0.0592
     23 H3          0.2265    1.7495    0.0554 H         1 <0>         0.0904
     24 H4          0.3025   -1.2393   -0.3768 H         1 <0>         0.0921
     25 H5          0.2426   -0.1235    2.4196 H         1 <0>         0.1003
     26 H6          0.7586   -1.7294    1.8512 H         1 <0>         0.0562
     27 H7          1.8203   -0.3196    1.6192 H         1 <0>         0.0764
     28 H8         -1.4111   -2.3012   -1.5113 H         1 <0>         0.1105
     29 H9         -3.5605   -3.1710   -2.3258 H         1 <0>         0.1189
     30 H10        -5.6767   -2.2616   -1.4663 H         1 <0>         0.1192
     31 H11        -5.6754   -0.4830    0.2060 H         1 <0>         0.1226
     32 H12         0.7489    1.1592    1.4175 H         1 <0>         0.1515
     33 H13         1.9295    2.7224    2.9008 H         1 <0>         0.1076
     34 H14        -1.7739    3.8812    4.6758 H         1 <0>         0.1122
@<TRIPOS>BOND
     1    1    2 1
     2    1   21 1
     3    1   22 1
     4    1   23 1
     5    2    3 1
     6    2    4 1
     7    2   24 1
     8    3   25 1
     9    3   26 1
    10    3   27 1
    11    4   12 1
    12    4    5 1
    13    5   10 ar
    14    5    6 ar
    15    6    7 ar
    16    6   28 1
    17    7    8 ar
    18    7   29 1
    19    8    9 ar
    20    8   30 1
    21    9   10 ar
    22    9   31 1
    23   10   11 1
    24   11   12 2
    25   12   13 1
    26   13   18 ar
    27   13   14 ar
    28   14   15 ar
    29   14   32 1
    30   15   16 ar
    31   15   33 1
    32   16   17 ar
    33   16   20 1
    34   17   18 ar
    35   17   34 1
    36   18   19 1
@<TRIPOS>MOLECULE
ZINC60132700
   36    38     0     0     0
SMALL
USER_CHARGES

@<TRIPOS>ATOM
      1 C1          2.0915   -2.6601   -1.6111 C.3       1 <0>        -0.1062
      2 C2          2.0853   -2.0167   -0.2483 C.ar      1 <0>        -0.0945
      3 C3          2.8684   -0.9013   -0.0082 C.ar      1 <0>        -0.1113
      4 C4          2.8697   -0.3039    1.2401 C.ar      1 <0>        -0.0787
      5 C5          2.0889   -0.8167    2.2546 C.ar      1 <0>        -0.0625
      6 C6          1.2950   -1.9428    2.0195 C.ar      1 <0>        -0.0270
      7 C7          1.2950   -2.5376    0.7547 C.ar      1 <0>        -0.1056
      8 C8          0.4584   -2.4970    3.0981 C.2       1 <0>        -0.0694
      9 C9         -0.2350   -1.6721    3.9026 C.2       1 <0>         0.0078
     10 C10        -0.1486   -0.2141    3.7130 C.ar      1 <0>         0.3950
     11 N1         -0.1431    0.2712    2.4691 N.ar      1 <0>        -0.6001
     12 C11        -0.0674    1.5695    2.2369 C.ar      1 <0>         0.4741
     13 O1         -0.0632    2.0479    0.9714 O.3       1 <0>        -0.6538
     14 C12         0.0086    2.4485    3.3447 C.ar      1 <0>        -0.2255
     15 C13         0.0907    3.8361    3.1851 C.ar      1 <0>        -0.0132
     16 C14         0.1615    4.6373    4.2881 C.ar      1 <0>        -0.0980
     17 C15         0.1531    4.0920    5.5703 C.ar      1 <0>        -0.0762
     18 C16         0.0746    2.7448    5.7598 C.ar      1 <0>        -0.1253
     19 C17        -0.0001    1.8919    4.6484 C.ar      1 <0>         0.1953
     20 N2         -0.0850    0.5624    4.7820 N.ar      1 <0>        -0.5897
     21 Cl1         0.2639    6.3590    4.0905 Cl        1 <0>        -0.0983
     22 Cl2        -1.2320   -2.3257    5.1645 Cl        1 <0>        -0.0619
     23 C18         3.7269    0.9098    1.4916 C.3       1 <0>        -0.1099
     24 H1          1.2634   -2.2682   -2.2017 H         1 <0>         0.0659
     25 H2          3.0330   -2.4382   -2.1134 H         1 <0>         0.0593
     26 H3          1.9824   -3.7393   -1.5038 H         1 <0>         0.0606
     27 H4          3.4820   -0.4952   -0.7988 H         1 <0>         0.1118
     28 H5          2.0912   -0.3497    3.2284 H         1 <0>         0.1054
     29 H6          0.6810   -3.4055    0.5646 H         1 <0>         0.1164
     30 H7          0.4021   -3.5658    3.2428 H         1 <0>         0.1370
     31 H8          0.0983    4.2702    2.1962 H         1 <0>         0.1331
     32 H9          0.2102    4.7470    6.4271 H         1 <0>         0.1252
     33 H10         0.0698    2.3361    6.7595 H         1 <0>         0.1319
     34 H11         3.1242    1.8106    1.3753 H         1 <0>         0.0714
     35 H12         4.1268    0.8686    2.5047 H         1 <0>         0.0575
     36 H13         4.5494    0.9282    0.7767 H         1 <0>         0.0593
@<TRIPOS>BOND
     1    1    2 1
     2    1   24 1
     3    1   25 1
     4    1   26 1
     5    2    7 ar
     6    2    3 ar
     7    3    4 ar
     8    3   27 1
     9    4    5 ar
    10    4   23 1
    11    5    6 ar
    12    5   28 1
    13    6    7 ar
    14    6    8 1
    15    7   29 1
    16    8    9 2
    17    8   30 1
    18    9   10 1
    19    9   22 1
    20   10   20 ar
    21   10   11 ar
    22   11   12 ar
    23   12   13 1
    24   12   14 ar
    25   14   19 ar
    26   14   15 ar
    27   15   16 ar
    28   15   31 1
    29   16   17 ar
    30   16   21 1
    31   17   18 ar
    32   17   32 1
    33   18   19 ar
    34   18   33 1
    35   19   20 ar
    36   23   34 1
    37   23   35 1
    38   23   36 1
@<TRIPOS>MOLECULE
ZINC05339075
   64    67     0     0     0
SMALL
USER_CHARGES
4-(10,13-dimethyl-12-oxo-1,2,3,4,5,6,7,8,9,11,14,15,16,17-tetradecahydrocyclopenta[a]phenanthren-17-yl)pentanoic acid
@<TRIPOS>ATOM
      1 C1          2.2092    5.5288    1.2592 C.3       1 <0>        -0.1407
      2 C2          2.7804    5.0416   -0.0740 C.3       1 <0>        -0.0880
      3 H1          2.3678    5.6399   -0.8864 H         1 <0>         0.0690
      4 C3          2.4074    3.5725   -0.2822 C.3       1 <0>        -0.0909
      5 C4          0.8890    3.4467   -0.4223 C.3       1 <0>        -0.1569
      6 C5          0.5216    1.9997   -0.6274 C.2       1 <0>         0.4572
      7 O1          1.3855    1.1556   -0.6584 O.co2     1 <0>        -0.6432
      8 C6          4.3011    5.1836   -0.0586 C.3       1 <0>        -0.0634
      9 H2          4.7414    4.5984    0.7420 H         1 <0>         0.0717
     10 C7          4.8962    4.7758   -1.4311 C.3       1 <0>        -0.1220
     11 C8          5.8898    5.9019   -1.8340 C.3       1 <0>        -0.1103
     12 C9          6.1101    6.6503   -0.5172 C.3       1 <0>        -0.0742
     13 H3          6.7376    5.9945    0.1191 H         1 <0>         0.0641
     14 C10         4.6918    6.6637    0.0929 C.3       1 <0>        -0.1023
     15 C11         4.7796    7.1620    1.5006 C.2       1 <0>         0.3667
     16 O2          4.0546    6.7418    2.3833 O.2       1 <0>        -0.4397
     17 C12         5.8315    8.2327    1.7783 C.3       1 <0>        -0.1491
     18 C13         6.1604    8.9522    0.4731 C.3       1 <0>        -0.0708
     19 H4          5.2438    9.3786    0.0624 H         1 <0>         0.0795
     20 C14         6.7604    7.9913   -0.5482 C.3       1 <0>        -0.0678
     21 H5          7.8080    7.8273   -0.2388 H         1 <0>         0.0628
     22 C15         6.8175    8.6324   -1.9290 C.3       1 <0>        -0.1087
     23 C16         7.3505   10.0692   -1.7989 C.3       1 <0>        -0.1134
     24 C17         8.0898   10.1880   -0.4758 C.3       1 <0>        -0.0774
     25 H6          8.7658    9.3206   -0.3960 H         1 <0>         0.0671
     26 C18         7.1127   10.1238    0.6991 C.3       1 <0>        -0.0448
     27 C19         7.9118    9.9918    1.9904 C.3       1 <0>        -0.1080
     28 C20         8.8509   11.1927    2.1404 C.3       1 <0>        -0.1180
     29 C21         9.7684   11.3413    0.9314 C.3       1 <0>        -0.1171
     30 C22         8.9607   11.4305   -0.3691 C.3       1 <0>        -0.1122
     31 C23         6.2657   11.3978    0.7570 C.3       1 <0>        -0.1463
     32 C24         3.7098    7.5003   -0.7279 C.3       1 <0>        -0.1370
     33 H7          2.7324    5.0378    2.0797 H         1 <0>         0.0577
     34 H8          2.3409    6.6079    1.3382 H         1 <0>         0.0526
     35 H9          1.1474    5.2877    1.3093 H         1 <0>         0.0479
     36 H10         2.7429    2.9875    0.5741 H         1 <0>         0.0566
     37 H11         2.8878    3.2004   -1.1871 H         1 <0>         0.0593
     38 H12         0.5534    4.0317   -1.2786 H         1 <0>         0.0588
     39 H13         0.4086    3.8188    0.4826 H         1 <0>         0.0642
     40 H14         5.4230    3.8261   -1.3430 H         1 <0>         0.0658
     41 H15         4.1017    4.6952   -2.1730 H         1 <0>         0.0718
     42 H16         6.8293    5.4702   -2.1876 H         1 <0>         0.0624
     43 H17         5.4630    6.5483   -2.5960 H         1 <0>         0.0710
     44 H18         6.6570    7.8022    2.1434 H         1 <0>         0.0883
     45 H19         5.4386    8.9456    2.5083 H         1 <0>         0.0902
     46 H20         7.4854    8.0599   -2.5719 H         1 <0>         0.0636
     47 H21         5.8222    8.6598   -2.3684 H         1 <0>         0.0657
     48 H22         6.5244   10.7732   -1.8490 H         1 <0>         0.0638
     49 H23         8.0428   10.2679   -2.6220 H         1 <0>         0.0593
     50 H24         7.2280    9.9576    2.8431 H         1 <0>         0.0648
     51 H25         8.4965    9.0689    1.9681 H         1 <0>         0.0617
     52 H26         8.2840   12.1087    2.2905 H         1 <0>         0.0624
     53 H27         9.4743   11.0376    3.0316 H         1 <0>         0.0540
     54 H28        10.3664   12.2477    1.0428 H         1 <0>         0.0570
     55 H29        10.4380   10.4813    0.8784 H         1 <0>         0.0581
     56 H30         8.3712   12.3391   -0.3895 H         1 <0>         0.0650
     57 H31         9.6581   11.4496   -1.2160 H         1 <0>         0.0561
     58 H32         5.5519   11.3226    1.5773 H         1 <0>         0.0530
     59 H33         6.9148   12.2586    0.9180 H         1 <0>         0.0589
     60 H34         5.7275   11.5193   -0.1830 H         1 <0>         0.0560
     61 H35         2.7174    7.4376   -0.2813 H         1 <0>         0.0695
     62 H36         4.0384    8.5395   -0.7387 H         1 <0>         0.0580
     63 H37         3.6735    7.1201   -1.7488 H         1 <0>         0.0718
     64 O3         -0.7655    1.6485   -0.7757 O.co2     1 <0>        -0.7813
@<TRIPOS>BOND
     1    1    2 1
     2    1   33 1
     3    1   34 1
     4    1   35 1
     5    2    3 1
     6    2    4 1
     7    2    8 1
     8    4    5 1
     9    4   36 1
    10    4   37 1
    11    5    6 1
    12    5   38 1
    13    5   39 1
    14    6    7 2
    15    6   64 1
    16    8    9 1
    17    8   14 1
    18    8   10 1
    19   10   11 1
    20   10   40 1
    21   10   41 1
    22   11   12 1
    23   11   42 1
    24   11   43 1
    25   12   13 1
    26   12   20 1
    27   12   14 1
    28   14   15 1
    29   14   32 1
    30   15   16 2
    31   15   17 1
    32   17   18 1
    33   17   44 1
    34   17   45 1
    35   18   19 1
    36   18   26 1
    37   18   20 1
    38   20   21 1
    39   20   22 1
    40   22   23 1
    41   22   46 1
    42   22   47 1
    43   23   24 1
    44   23   48 1
    45   23   49 1
    46   24   25 1
    47   24   30 1
    48   24   26 1
    49   26   27 1
    50   26   31 1
    51   27   28 1
    52   27   50 1
    53   27   51 1
    54   28   29 1
    55   28   52 1
    56   28   53 1
    57   29   30 1
    58   29   54 1
    59   29   55 1
    60   30   56 1
    61   30   57 1
    62   31   58 1
    63   31   59 1
    64   31   60 1
    65   32   61 1
    66   32   62 1
    67   32   63 1
@<TRIPOS>MOLECULE
ZINC05690314
   60    63     0     0     0
SMALL
USER_CHARGES
(9S)-9-(4-allyloxyphenyl)-8-hydroxy-3,3,6,6-tetramethyl-4,5,7,9-tetrahydro-2H-acridin-1-one
@<TRIPOS>ATOM
      1 C1          0.7143   -0.5137    1.2566 C.3       1 <0>        -0.1455
      2 C2          0.0021   -0.0041    0.0020 C.3       1 <0>        -0.0543
      3 C3         -0.0187    1.5256    0.0104 C.3       1 <0>        -0.0670
      4 C4          1.3982    2.0511   -0.0003 C.2       1 <0>         0.2504
      5 C5          2.3913    1.3253   -0.6165 C.2       1 <0>        -0.3748
      6 C6          3.7970    1.8952   -0.6133 C.3       1 <0>         0.1209
      7 H1          4.4097    1.1793   -0.0458 H         1 <0>         0.0351
      8 C7          3.9645    3.2299    0.0877 C.2       1 <0>        -0.3941
      9 C8          5.1727    3.8198    0.1412 C.2       1 <0>         0.3309
     10 C9          5.3655    5.1443    0.8314 C.3       1 <0>        -0.1206
     11 C10         4.0659    5.9504    0.7479 C.3       1 <0>        -0.0551
     12 C11         2.9349    5.1332    1.3777 C.3       1 <0>        -0.0689
     13 C12         2.8225    3.8068    0.6631 C.2       1 <0>         0.2920
     14 N1          1.6541    3.2132    0.5923 N.2       1 <0>        -0.6482
     15 C13         3.7350    6.2388   -0.7178 C.3       1 <0>        -0.1451
     16 C14         4.2285    7.2695    1.5057 C.3       1 <0>        -0.1384
     17 O1          6.2294    3.2141   -0.4329 O.3       1 <0>        -0.6224
     18 C15         4.2444    2.0544   -2.0435 C.ar      1 <0>        -0.0334
     19 C16         3.5304    2.8682   -2.9036 C.ar      1 <0>        -0.0793
     20 C17         3.9418    3.0202   -4.2136 C.ar      1 <0>        -0.2162
     21 C18         5.0656    2.3462   -4.6691 C.ar      1 <0>         0.0977
     22 C19         5.7770    1.5258   -3.8057 C.ar      1 <0>        -0.1560
     23 C20         5.3650    1.3819   -2.4950 C.ar      1 <0>        -0.0320
     24 O2          5.4686    2.4891   -5.9591 O.3       1 <0>        -0.3194
     25 C21         4.6881    3.3498   -6.7911 C.3       1 <0>         0.0870
     26 C22         5.2820    3.3839   -8.1757 C.2       1 <0>        -0.1496
     27 C23         4.5040    3.2826   -9.2248 C.2       1 <0>        -0.1856
     28 C24         2.1402    0.1035   -1.2347 C.2       1 <0>         0.3989
     29 O3          3.0508   -0.4965   -1.7726 O.2       1 <0>        -0.5095
     30 C25         0.7525   -0.4839   -1.2444 C.3       1 <0>        -0.1534
     31 C26        -1.4323   -0.5357   -0.0244 C.3       1 <0>        -0.1387
     32 H2          0.1743   -0.1684    2.1505 H         1 <0>         0.0530
     33 H3          1.7434   -0.1257    1.2771 H         1 <0>         0.0661
     34 H4          0.7372   -1.6134    1.2440 H         1 <0>         0.0501
     35 H5         -0.5507    1.8899   -0.8808 H         1 <0>         0.0762
     36 H6         -0.5336    1.8804    0.9154 H         1 <0>         0.0791
     37 H7          5.6265    4.9735    1.8862 H         1 <0>         0.0779
     38 H8          6.1767    5.7001    0.3383 H         1 <0>         0.0743
     39 H9          3.1551    4.9617    2.4417 H         1 <0>         0.0788
     40 H10         1.9877    5.6846    1.2835 H         1 <0>         0.0788
     41 H11         2.8015    6.8177   -0.7759 H         1 <0>         0.0494
     42 H12         3.6120    5.2894   -1.2596 H         1 <0>         0.0693
     43 H13         4.5536    6.8166   -1.1717 H         1 <0>         0.0492
     44 H14         3.2935    7.8457    1.4436 H         1 <0>         0.0547
     45 H15         5.0479    7.8510    1.0580 H         1 <0>         0.0545
     46 H16         4.4610    7.0602    2.5603 H         1 <0>         0.0541
     47 H17         2.6527    3.3886   -2.5498 H         1 <0>         0.1061
     48 H18         3.3861    3.6592   -4.8839 H         1 <0>         0.1104
     49 H19         6.6524    1.0004   -4.1579 H         1 <0>         0.1147
     50 H20         5.9185    0.7434   -1.8225 H         1 <0>         0.1149
     51 H21         3.6564    2.9720   -6.8438 H         1 <0>         0.0623
     52 H22         4.6855    4.3652   -6.3681 H         1 <0>         0.0675
     53 H23         6.3688    3.4938   -8.3055 H         1 <0>         0.1197
     54 H24         4.9375    3.3075  -10.2355 H         1 <0>         0.1068
     55 H25         3.4172    3.1727   -9.0950 H         1 <0>         0.1003
     56 H26         0.8135   -1.5822   -1.2356 H         1 <0>         0.0785
     57 H27         0.2152   -0.1538   -2.1457 H         1 <0>         0.0832
     58 H28        -1.9429   -0.1685   -0.9269 H         1 <0>         0.0542
     59 H29        -1.9697   -0.1853    0.8692 H         1 <0>         0.0559
     60 H30        -1.4156   -1.6355   -0.0345 H         1 <0>         0.0546
@<TRIPOS>BOND
     1    1    2 1
     2    1   32 1
     3    1   33 1
     4    1   34 1
     5    2   30 1
     6    2    3 1
     7    2   31 1
     8    3    4 1
     9    3   35 1
    10    3   36 1
    11    4   14 1
    12    4    5 2
    13    5    6 1
    14    5   28 1
    15    6    7 1
    16    6    8 1
    17    6   18 1
    18    8   13 1
    19    8    9 2
    20    9   10 1
    21    9   17 1
    22   10   11 1
    23   10   37 1
    24   10   38 1
    25   11   12 1
    26   11   15 1
    27   11   16 1
    28   12   13 1
    29   12   39 1
    30   12   40 1
    31   13   14 2
    32   15   41 1
    33   15   42 1
    34   15   43 1
    35   16   44 1
    36   16   45 1
    37   16   46 1
    38   18   23 ar
    39   18   19 ar
    40   19   20 ar
    41   19   47 1
    42   20   21 ar
    43   20   48 1
    44   21   22 ar
    45   21   24 1
    46   22   23 ar
    47   22   49 1
    48   23   50 1
    49   24   25 1
    50   25   26 1
    51   25   51 1
    52   25   52 1
    53   26   27 2
    54   26   53 1
    55   27   54 1
    56   27   55 1
    57   28   29 2
    58   28   30 1
    59   30   56 1
    60   30   57 1
    61   31   58 1
    62   31   59 1
    63   31   60 1
@<TRIPOS>MOLECULE
ZINC01228809
   30    33     0     0     0
SMALL
USER_CHARGES
(2E)-2-[[(6-bromo-1,3-benzothiazol-2-yl)amino]methylene]benzothiophen-3-one
@<TRIPOS>ATOM
      1 C1        -11.4412    5.0373    0.0840 C.ar      1 <0>        -0.1503
      2 C2        -11.3635    6.4231    0.0907 C.ar      1 <0>        -0.0836
      3 C3        -10.1258    7.0346    0.0878 C.ar      1 <0>        -0.1049
      4 C4         -8.9802    6.2637    0.0784 C.ar      1 <0>        -0.0570
      5 C5         -9.0277    4.8563    0.0715 C.ar      1 <0>        -0.1794
      6 C6        -10.3114    4.2622    0.0751 C.ar      1 <0>        -0.0434
      7 C7         -7.7261    4.1881    0.0555 C.2       1 <0>         0.4119
      8 O1         -7.6375    2.9713    0.0425 O.3       1 <0>        -0.4687
      9 C8         -6.5740    5.0100    0.0604 C.2       1 <0>        -0.3684
     10 C9         -5.2683    4.6334    0.0522 C.2       1 <0>         0.2886
     11 N1         -4.9396    3.3059    0.0434 N.2       1 <0>        -0.5483
     12 C10        -3.6109    2.9226    0.0350 C.2       1 <0>         0.4118
     13 N2         -2.5360    3.6770    0.0457 N.2       1 <0>        -0.6402
     14 C11        -1.2877    3.1616    0.0314 C.ar      1 <0>         0.1721
     15 C12        -0.0562    3.8570    0.0234 C.ar      1 <0>        -0.1106
     16 C13         1.1326    3.1759    0.0084 C.ar      1 <0>        -0.0690
     17 C14         1.1734    1.7882    0.0005 C.ar      1 <0>        -0.1291
     18 C15        -0.0126    1.0758    0.0080 C.ar      1 <0>        -0.0090
     19 C16        -1.2079    1.7503    0.0173 C.ar      1 <0>        -0.1958
     20 S1         -2.9197    1.2745    0.0227 S.3       1 <0>        -0.0357
     21 Br1         2.8326    0.8813   -0.0197 Br        1 <0>        -0.0625
     22 S2         -7.2503    6.6582    0.0720 S.3       1 <0>        -0.0252
     23 H1        -12.4105    4.5610    0.0863 H         1 <0>         0.1229
     24 H2        -12.2645    7.0186    0.0984 H         1 <0>         0.1289
     25 H3        -10.0538    8.1122    0.0926 H         1 <0>         0.1277
     26 H4        -10.4020    3.1860    0.0704 H         1 <0>         0.1248
     27 H5         -4.4758    5.3962    0.0526 H         1 <0>         0.1052
     28 H6         -0.0528    4.9370    0.0289 H         1 <0>         0.1291
     29 H7          2.0589    3.7312    0.0029 H         1 <0>         0.1290
     30 H8          0.0021   -0.0041    0.0020 H         1 <0>         0.1292
@<TRIPOS>BOND
     1    1    6 ar
     2    1    2 ar
     3    1   23 1
     4    2    3 ar
     5    2   24 1
     6    3    4 ar
     7    3   25 1
     8    4   22 1
     9    4    5 ar
    10    5    6 ar
    11    5    7 1
    12    6   26 1
    13    7    8 1
    14    7    9 2
    15    9   10 1
    16    9   22 1
    17   10   11 2
    18   10   27 1
    19   11   12 1
    20   12   20 1
    21   12   13 2
    22   13   14 1
    23   14   19 ar
    24   14   15 ar
    25   15   16 ar
    26   15   28 1
    27   16   17 ar
    28   16   29 1
    29   17   18 ar
    30   17   21 1
    31   18   19 ar
    32   18   30 1
    33   19   20 1
@<TRIPOS>MOLECULE
ZINC37574757
   32    33     0     0     0
SMALL
USER_CHARGES

@<TRIPOS>ATOM
      1 C1         -0.0184    1.5028    0.0103 C.3       1 <0>        -0.0902
      2 C2          0.0021   -0.0041    0.0020 C.ar      1 <0>        -0.1992
      3 C3          0.0057   -0.6874   -1.2004 C.ar      1 <0>        -0.0618
      4 C4          0.0244   -2.0681   -1.2116 C.ar      1 <0>        -0.2655
      5 C5          0.0396   -2.7708   -0.0132 C.ar      1 <0>         0.2819
      6 C6          0.0359   -2.0814    1.1925 C.ar      1 <0>        -0.1782
      7 C7          0.0229   -0.7002    1.1965 C.ar      1 <0>        -0.0504
      8 C8          0.0251    0.0488    2.5042 C.3       1 <0>        -0.1064
      9 N1          0.0581   -4.1674   -0.0209 N.2       1 <0>        -1.0741
     10 S1          0.0619   -4.9875   -1.4596 S.o2      1 <0>         2.5878
     11 O1         -1.1901   -4.7266   -2.0791 O.2       1 <0>        -1.0274
     12 O2          1.3004   -4.6936   -2.0913 O.2       1 <0>        -1.0058
     13 C9          0.0866   -6.7076   -1.0786 C.ar      1 <0>        -0.5814
     14 C10        -0.9873   -7.5073   -1.4230 C.ar      1 <0>        -0.0220
     15 C11        -0.9683   -8.8566   -1.1248 C.ar      1 <0>        -0.1041
     16 C12         0.1255   -9.4078   -0.4815 C.ar      1 <0>        -0.0527
     17 C13         1.1999   -8.6083   -0.1368 C.ar      1 <0>        -0.0917
     18 C14         1.1827   -7.2588   -0.4402 C.ar      1 <0>         0.0071
     19 Br1         2.6549   -6.1664    0.0239 Br        1 <0>         0.0025
     20 Br2         0.1511  -11.2540   -0.0731 Br        1 <0>        -0.0426
     21 H1          1.0042    1.8801    0.0026 H         1 <0>         0.0483
     22 H2         -0.5455    1.8639   -0.8728 H         1 <0>         0.0485
     23 H3         -0.5286    1.8543    0.9071 H         1 <0>         0.0528
     24 H4         -0.0065   -0.1406   -2.1317 H         1 <0>         0.0997
     25 H5          0.0269   -2.6011   -2.1509 H         1 <0>         0.0945
     26 H6          0.0473   -2.6246    2.1259 H         1 <0>         0.1107
     27 H7         -1.0019    0.2154    2.8292 H         1 <0>         0.0594
     28 H8          0.5541   -0.5358    3.2568 H         1 <0>         0.0575
     29 H9          0.5246    1.0086    2.3723 H         1 <0>         0.0581
     30 H10        -1.8415   -7.0773   -1.9249 H         1 <0>         0.1558
     31 H11        -1.8076   -9.4808   -1.3937 H         1 <0>         0.1433
     32 H12         2.0540   -9.0382    0.3654 H         1 <0>         0.1457
@<TRIPOS>BOND
     1    1    2 1
     2    1   21 1
     3    1   22 1
     4    1   23 1
     5    2    7 ar
     6    2    3 ar
     7    3    4 ar
     8    3   24 1
     9    4    5 ar
    10    4   25 1
    11    5    6 ar
    12    5    9 1
    13    6    7 ar
    14    6   26 1
    15    7    8 1
    16    8   27 1
    17    8   28 1
    18    8   29 1
    19    9   10 1
    20   10   11 2
    21   10   12 2
    22   10   13 1
    23   13   18 ar
    24   13   14 ar
    25   14   15 ar
    26   14   30 1
    27   15   16 ar
    28   15   31 1
    29   16   17 ar
    30   16   20 1
    31   17   18 ar
    32   17   32 1
    33   18   19 1
@<TRIPOS>MOLECULE
ZINC54363514
   29    30     0     0     0
SMALL
USER_CHARGES

@<TRIPOS>ATOM
      1 C1         -0.0184    1.5028    0.0103 C.3       1 <0>        -0.0778
      2 C2          0.0021   -0.0041    0.0020 C.ar      1 <0>        -0.1518
      3 C3          0.0057   -0.6889   -1.1975 C.ar      1 <0>        -0.0826
      4 C4          0.0240   -2.0714   -1.2060 C.ar      1 <0>        -0.2239
      5 C5          0.0391   -2.7733   -0.0143 C.ar      1 <0>        -0.0727
      6 C6          0.0360   -2.0949    1.1884 C.ar      1 <0>        -0.2628
      7 C7          0.0230   -0.7057    1.2005 C.ar      1 <0>         0.2828
      8 N1          0.0251   -0.0163    2.4152 N.2       1 <0>        -1.0678
      9 S1          0.0500   -0.8547    3.8431 S.o2      1 <0>         2.5868
     10 O1         -1.1852   -1.5522    3.9261 O.2       1 <0>        -1.0239
     11 O2          1.3052   -1.5183    3.9025 O.2       1 <0>        -1.0024
     12 C8          0.0462    0.3329    5.1447 C.ar      1 <0>        -0.5804
     13 C9         -1.0295    0.4063    6.0098 C.ar      1 <0>        -0.0054
     14 C10        -1.0330    1.3383    7.0317 C.ar      1 <0>        -0.0440
     15 C11         0.0414    2.1980    7.1880 C.ar      1 <0>         0.0079
     16 C12         1.1171    2.1240    6.3221 C.ar      1 <0>        -0.0993
     17 C13         1.1220    1.1876    5.3038 C.ar      1 <0>         0.0153
     18 Br1         2.5963    1.0811    4.1245 Br        1 <0>         0.0145
     19 Cl1         0.0376    3.3686    8.4699 Cl        1 <0>        -0.0399
     20 Cl2        -2.3841    1.4308    8.1178 Cl        1 <0>        -0.0426
     21 H1          1.0042    1.8801    0.0026 H         1 <0>         0.0460
     22 H2         -0.5455    1.8639   -0.8728 H         1 <0>         0.0355
     23 H3         -0.5286    1.8543    0.9071 H         1 <0>         0.0715
     24 H4         -0.0060   -0.1439   -2.1298 H         1 <0>         0.1024
     25 H5          0.0261   -2.6044   -2.1453 H         1 <0>         0.0990
     26 H6          0.0529   -3.8531   -0.0245 H         1 <0>         0.0993
     27 H7          0.0474   -2.6436    2.1185 H         1 <0>         0.0949
     28 H8         -1.8674   -0.2640    5.8875 H         1 <0>         0.1657
     29 H9          1.9551    2.7944    6.4432 H         1 <0>         0.1561
@<TRIPOS>BOND
     1    1    2 1
     2    1   21 1
     3    1   22 1
     4    1   23 1
     5    2    7 ar
     6    2    3 ar
     7    3    4 ar
     8    3   24 1
     9    4    5 ar
    10    4   25 1
    11    5    6 ar
    12    5   26 1
    13    6    7 ar
    14    6   27 1
    15    7    8 1
    16    8    9 1
    17    9   10 2
    18    9   11 2
    19    9   12 1
    20   12   17 ar
    21   12   13 ar
    22   13   14 ar
    23   13   28 1
    24   14   15 ar
    25   14   20 1
    26   15   16 ar
    27   15   19 1
    28   16   17 ar
    29   16   29 1
    30   17   18 1
@<TRIPOS>MOLECULE
ZINC06813205
   54    59     0     0     0
SMALL
USER_CHARGES

@<TRIPOS>ATOM
      1 C1         -0.0184    1.5028    0.0103 C.3       1 <0>        -0.1028
      2 C2          0.0021   -0.0041    0.0020 C.ar      1 <0>        -0.1145
      3 C3          0.0057   -0.6887   -1.1989 C.ar      1 <0>        -0.1261
      4 C4          0.0245   -2.0709   -1.2065 C.ar      1 <0>        -0.0803
      5 C5          0.0400   -2.7685   -0.0132 C.ar      1 <0>        -0.0258
      6 C6          0.0373   -2.0839    1.1877 C.ar      1 <0>        -0.1081
      7 C7          0.0229   -0.7016    1.1953 C.ar      1 <0>        -0.1312
      8 C8          0.0595   -4.2753   -0.0215 C.3       1 <0>         0.1310
      9 H1          0.0581   -4.6085   -1.0593 H         1 <0>         0.0408
     10 C9         -1.2145   -4.7699    0.6374 C.2       1 <0>        -0.3830
     11 C10        -2.4146   -4.4099    0.1410 C.2       1 <0>         0.3326
     12 C11        -3.6957   -4.8855    0.7737 C.3       1 <0>        -0.1185
     13 C12        -3.4574   -6.2498    1.4277 C.3       1 <0>        -0.0418
     14 H2         -3.1763   -6.9762    0.6651 H         1 <0>         0.0840
     15 C13        -2.3269   -6.1175    2.4512 C.3       1 <0>        -0.0662
     16 C14        -1.0869   -5.5997    1.7599 C.2       1 <0>         0.2915
     17 N1          0.0926   -5.9369    2.2275 N.2       1 <0>        -0.6270
     18 C15         1.2714   -5.5581    1.7321 C.2       1 <0>         0.2666
     19 C16         1.3514   -4.7362    0.6226 C.2       1 <0>        -0.3819
     20 C17         2.6974   -4.4924    0.3119 C.2       1 <0>         0.4447
     21 O1          3.1077   -3.8115   -0.6101 O.2       1 <0>        -0.4768
     22 C18         3.5348   -5.2124    1.3087 C.ar      1 <0>        -0.1496
     23 C19         2.6615   -5.8677    2.1758 C.ar      1 <0>        -0.0224
     24 C20         3.1673   -6.6255    3.2165 C.ar      1 <0>        -0.0913
     25 C21         4.5426   -6.7340    3.3875 C.ar      1 <0>        -0.1100
     26 C22         5.4043   -6.0903    2.5253 C.ar      1 <0>        -0.1277
     27 C23         4.9008   -5.3273    1.4908 C.ar      1 <0>        -0.0687
     28 C24        -4.7167   -6.7052    2.1188 C.ar      1 <0>        -0.0645
     29 C25        -5.2666   -5.9385    3.1291 C.ar      1 <0>        -0.1128
     30 C26        -6.4218   -6.3562    3.7631 C.ar      1 <0>        -0.1196
     31 C27        -7.0274   -7.5404    3.3865 C.ar      1 <0>        -0.1298
     32 C28        -6.4780   -8.3066    2.3756 C.ar      1 <0>        -0.1206
     33 C29        -5.3252   -7.8868    1.7387 C.ar      1 <0>        -0.1151
     34 O2         -2.4692   -3.6100   -0.9402 O.3       1 <0>        -0.6103
     35 H3          1.0042    1.8801    0.0026 H         1 <0>         0.0594
     36 H4         -0.5455    1.8639   -0.8728 H         1 <0>         0.0578
     37 H5         -0.5286    1.8543    0.9071 H         1 <0>         0.0568
     38 H6         -0.0064   -0.1436   -2.1312 H         1 <0>         0.1074
     39 H7          0.0266   -2.6057   -2.1448 H         1 <0>         0.1091
     40 H8          0.0491   -2.6289    2.1200 H         1 <0>         0.1046
     41 H9          0.0245   -0.1667    2.1335 H         1 <0>         0.1060
     42 H10        -4.0157   -4.1696    1.5308 H         1 <0>         0.0829
     43 H11        -4.4671   -4.9778    0.0092 H         1 <0>         0.0790
     44 H12        -2.6249   -5.4206    3.2346 H         1 <0>         0.0837
     45 H13        -2.1179   -7.0927    2.8909 H         1 <0>         0.0837
     46 H14         2.4957   -7.1312    3.8945 H         1 <0>         0.1299
     47 H15         4.9381   -7.3252    4.2002 H         1 <0>         0.1253
     48 H16         6.4714   -6.1795    2.6655 H         1 <0>         0.1261
     49 H17         5.5808   -4.8249    0.8188 H         1 <0>         0.1249
     50 H18        -4.7935   -5.0133    3.4234 H         1 <0>         0.1228
     51 H19        -6.8510   -5.7575    4.5529 H         1 <0>         0.1190
     52 H20        -7.9295   -7.8671    3.8823 H         1 <0>         0.1168
     53 H21        -6.9509   -9.2320    2.0816 H         1 <0>         0.1184
     54 H22        -4.8980   -8.4836    0.9464 H         1 <0>         0.1215
@<TRIPOS>BOND
     1    1    2 1
     2    1   35 1
     3    1   36 1
     4    1   37 1
     5    2    7 ar
     6    2    3 ar
     7    3    4 ar
     8    3   38 1
     9    4    5 ar
    10    4   39 1
    11    5    6 ar
    12    5    8 1
    13    6    7 ar
    14    6   40 1
    15    7   41 1
    16    8    9 1
    17    8   19 1
    18    8   10 1
    19   10   16 1
    20   10   11 2
    21   11   12 1
    22   11   34 1
    23   12   13 1
    24   12   42 1
    25   12   43 1
    26   13   14 1
    27   13   15 1
    28   13   28 1
    29   15   16 1
    30   15   44 1
    31   15   45 1
    32   16   17 2
    33   17   18 1
    34   18   23 1
    35   18   19 2
    36   19   20 1
    37   20   21 2
    38   20   22 1
    39   22   27 ar
    40   22   23 ar
    41   23   24 ar
    42   24   25 ar
    43   24   46 1
    44   25   26 ar
    45   25   47 1
    46   26   27 ar
    47   26   48 1
    48   27   49 1
    49   28   33 ar
    50   28   29 ar
    51   29   30 ar
    52   29   50 1
    53   30   31 ar
    54   30   51 1
    55   31   32 ar
    56   31   52 1
    57   32   33 ar
    58   32   53 1
    59   33   54 1
@<TRIPOS>MOLECULE
ZINC05532217
   67    70     0     0     0
SMALL
USER_CHARGES
4-(3,7-dihydroxy-10,13-dimethyl-2,3,4,5,6,7,8,9,11,12,14,15,16,17-tetradecahydro-1H-cyclopenta[a]phenanthren-17-yl)pentanoic acid
@<TRIPOS>ATOM
      1 C1          3.9797    1.5635    1.2900 C.3       1 <0>        -0.1514
      2 C2          2.7352    1.8067    2.1461 C.3       1 <0>        -0.0883
      3 H1          2.5113    2.8733    2.1669 H         1 <0>         0.0717
      4 C3          2.9914    1.3114    3.5708 C.3       1 <0>        -0.0928
      5 C4          4.0953    2.1540    4.2129 C.3       1 <0>        -0.1569
      6 C5          4.3477    1.6661    5.6162 C.2       1 <0>         0.4566
      7 O1          3.7101    0.7395    6.0575 O.co2     1 <0>        -0.6426
      8 C6          1.5513    1.0499    1.5494 C.3       1 <0>        -0.0746
      9 H2          1.7702   -0.0057    1.4418 H         1 <0>         0.0682
     10 C7          0.2782    1.2683    2.4037 C.3       1 <0>        -0.1239
     11 C8         -0.8659    1.6102    1.4101 C.3       1 <0>        -0.1029
     12 C9         -0.2839    1.1960    0.0514 C.3       1 <0>        -0.0688
     13 H3         -0.2997    0.0851    0.0092 H         1 <0>         0.0623
     14 C10         1.1831    1.6536    0.1755 C.3       1 <0>        -0.0520
     15 C11         2.0142    1.1320   -0.9703 C.3       1 <0>        -0.1053
     16 C12         1.1951    1.0835   -2.2677 C.3       1 <0>        -0.1047
     17 C13         0.0657    2.1050   -2.2424 C.3       1 <0>        -0.0661
     18 H4          0.4707    3.0933   -2.0244 H         1 <0>         0.0775
     19 C14        -0.9616    1.7203   -1.1768 C.3       1 <0>        -0.0595
     20 H5         -1.5509    0.8782   -1.5974 H         1 <0>         0.0696
     21 C15        -1.9416    2.8579   -0.9274 C.3       1 <0>         0.1172
     22 H6         -1.4773    3.6359   -0.3279 H         1 <0>         0.0556
     23 C16        -2.3767    3.4504   -2.2803 C.3       1 <0>        -0.1460
     24 C17        -2.1306    2.4021   -3.3544 C.3       1 <0>        -0.0753
     25 H7         -2.5229    1.4441   -2.9732 H         1 <0>         0.0830
     26 C18        -0.6306    2.2217   -3.5961 C.3       1 <0>        -0.0495
     27 C19        -0.4284    0.9945   -4.4762 C.3       1 <0>        -0.0990
     28 C20        -1.1542    1.1966   -5.8099 C.3       1 <0>        -0.1499
     29 C21        -2.6359    1.4932   -5.6075 C.3       1 <0>         0.1088
     30 H8         -3.0865    1.7278   -6.5763 H         1 <0>         0.0460
     31 C22        -2.8484    2.6824   -4.6647 C.3       1 <0>        -0.1035
     32 O2         -3.2842    0.3383   -5.0691 O.3       1 <0>        -0.5637
     33 C23        -0.0563    3.4520   -4.3023 C.3       1 <0>        -0.1462
     34 O3         -3.0988    2.3556   -0.2539 O.3       1 <0>        -0.5614
     35 C24         1.3168    3.1715    0.3063 C.3       1 <0>        -0.1419
     36 H9          3.8510    2.0400    0.3182 H         1 <0>         0.0533
     37 H10         4.8521    1.9855    1.7889 H         1 <0>         0.0558
     38 H11         4.1226    0.4916    1.1530 H         1 <0>         0.0486
     39 H12         2.0771    1.4027    4.1571 H         1 <0>         0.0603
     40 H13         3.3018    0.2669    3.5420 H         1 <0>         0.0557
     41 H14         5.0096    2.0626    3.6265 H         1 <0>         0.0628
     42 H15         3.7850    3.1984    4.2417 H         1 <0>         0.0585
     43 H16         0.0356    0.3588    2.9523 H         1 <0>         0.0602
     44 H17         0.4295    2.0951    3.0968 H         1 <0>         0.0657
     45 H18        -1.1065    2.6686    1.4392 H         1 <0>         0.0621
     46 H19        -1.7526    1.0140    1.6389 H         1 <0>         0.0603
     47 H20         2.8906    1.7745   -1.1168 H         1 <0>         0.0641
     48 H21         2.3737    0.1222   -0.7337 H         1 <0>         0.0602
     49 H22         1.8544    1.2857   -3.1163 H         1 <0>         0.0595
     50 H23         0.7741    0.0801   -2.3885 H         1 <0>         0.0581
     51 H24        -1.8163    4.3584   -2.4801 H         1 <0>         0.0678
     52 H25        -3.4442    3.6838   -2.2366 H         1 <0>         0.0654
     53 H26         0.6384    0.8450   -4.6611 H         1 <0>         0.0645
     54 H27        -0.8273    0.1119   -3.9702 H         1 <0>         0.0665
     55 H28        -0.6904    1.9955   -6.3842 H         1 <0>         0.0711
     56 H29        -1.0632    0.2721   -6.3975 H         1 <0>         0.0568
     57 H30        -2.5038    3.6014   -5.1242 H         1 <0>         0.0753
     58 H31        -3.9241    2.7813   -4.4632 H         1 <0>         0.0634
     59 H32        -3.2246   -0.4450   -5.6331 H         1 <0>         0.3741
     60 H33         1.0181    3.3259   -4.4356 H         1 <0>         0.0540
     61 H34        -0.5322    3.5672   -5.2761 H         1 <0>         0.0548
     62 H35        -0.2458    4.3392   -3.6981 H         1 <0>         0.0543
     63 H36        -3.7726    3.0260   -0.0764 H         1 <0>         0.3718
     64 H37         0.8945    3.4927    1.2584 H         1 <0>         0.0582
     65 H38         2.3703    3.4483    0.2642 H         1 <0>         0.0580
     66 H39         0.7811    3.6551   -0.5105 H         1 <0>         0.0503
     67 O4          5.2809    2.2608    6.3759 O.co2     1 <0>        -0.7817
@<TRIPOS>BOND
     1    1    2 1
     2    1   36 1
     3    1   37 1
     4    1   38 1
     5    2    3 1
     6    2    4 1
     7    2    8 1
     8    4    5 1
     9    4   39 1
    10    4   40 1
    11    5    6 1
    12    5   41 1
    13    5   42 1
    14    6    7 2
    15    6   67 1
    16    8    9 1
    17    8   14 1
    18    8   10 1
    19   10   11 1
    20   10   43 1
    21   10   44 1
    22   11   12 1
    23   11   45 1
    24   11   46 1
    25   12   13 1
    26   12   19 1
    27   12   14 1
    28   14   15 1
    29   14   35 1
    30   15   16 1
    31   15   47 1
    32   15   48 1
    33   16   17 1
    34   16   49 1
    35   16   50 1
    36   17   18 1
    37   17   26 1
    38   17   19 1
    39   19   20 1
    40   19   21 1
    41   21   22 1
    42   21   23 1
    43   21   34 1
    44   23   24 1
    45   23   51 1
    46   23   52 1
    47   24   25 1
    48   24   31 1
    49   24   26 1
    50   26   27 1
    51   26   33 1
    52   27   28 1
    53   27   53 1
    54   27   54 1
    55   28   29 1
    56   28   55 1
    57   28   56 1
    58   29   30 1
    59   29   31 1
    60   29   32 1
    61   31   57 1
    62   31   58 1
    63   32   59 1
    64   33   60 1
    65   33   61 1
    66   33   62 1
    67   34   63 1
    68   35   64 1
    69   35   65 1
    70   35   66 1
@<TRIPOS>MOLECULE
ZINC21515061
   28    29     0     0     0
SMALL
USER_CHARGES
5-amino-N-(2-bromophenyl)-2-chloro-benzenesulfonamide
@<TRIPOS>ATOM
      1 C1         -2.2610    5.0793    0.9758 C.ar      1 <0>        -0.0636
      2 C2         -2.2765    5.5007    2.2929 C.ar      1 <0>        -0.2117
      3 C3         -1.8548    4.6512    3.2990 C.ar      1 <0>        -0.0567
      4 C4         -1.4157    3.3776    2.9910 C.ar      1 <0>        -0.1410
      5 C5         -1.3990    2.9513    1.6684 C.ar      1 <0>         0.2819
      6 C6         -1.8190    3.8095    0.6602 C.ar      1 <0>        -0.2452
      7 N1         -0.9553    1.6645    1.3529 N.2       1 <0>        -1.0168
      8 S1         -0.1097    1.4000   -0.0461 S.o2      1 <0>         2.5815
      9 O1          0.2305    0.0204   -0.0604 O.2       1 <0>        -0.9770
     10 O2          0.8690    2.4268   -0.1294 O.2       1 <0>        -1.0307
     11 C7         -1.2250    1.6575   -1.3856 C.ar      1 <0>        -0.6026
     12 C8         -0.9960    2.6782   -2.2877 C.ar      1 <0>        -0.1091
     13 C9         -1.8753    2.8803   -3.3435 C.ar      1 <0>         0.2042
     14 C10        -2.9831    2.0549   -3.4892 C.ar      1 <0>        -0.1649
     15 C11        -3.2071    1.0361   -2.5844 C.ar      1 <0>        -0.0864
     16 C12        -2.3263    0.8336   -1.5362 C.ar      1 <0>        -0.0078
     17 Cl1        -2.6075   -0.4523   -0.4044 Cl        1 <0>        -0.0480
     18 N2         -1.6458    3.9118   -4.2579 N.pl3     1 <0>        -0.9000
     19 Br1        -0.8379    2.2166    4.3672 Br        1 <0>        -0.0745
     20 H1         -2.5908    5.7457    0.1925 H         1 <0>         0.1044
     21 H2         -2.6186    6.4958    2.5362 H         1 <0>         0.1088
     22 H3         -1.8682    4.9834    4.3265 H         1 <0>         0.1137
     23 H4         -1.8033    3.4828   -0.3691 H         1 <0>         0.1196
     24 H5         -0.1338    3.3182   -2.1723 H         1 <0>         0.1387
     25 H6         -3.6687    2.2101   -4.3091 H         1 <0>         0.1243
     26 H7         -4.0680    0.3938   -2.6974 H         1 <0>         0.1298
     27 H8         -2.3429    4.0710   -5.0938 H         1 <0>         0.4118
     28 H9         -0.7681    4.5646   -4.1418 H         1 <0>         0.4173
@<TRIPOS>BOND
     1    1    6 ar
     2    1    2 ar
     3    1   20 1
     4    2    3 ar
     5    2   21 1
     6    3    4 ar
     7    3   22 1
     8    4    5 ar
     9    4   19 1
    10    5    6 ar
    11    5    7 1
    12    6   23 1
    13    7    8 1
    14    8    9 2
    15    8   10 2
    16    8   11 1
    17   11   16 ar
    18   11   12 ar
    19   12   13 ar
    20   12   24 1
    21   13   14 ar
    22   13   18 1
    23   14   15 ar
    24   14   25 1
    25   15   16 ar
    26   15   26 1
    27   16   17 1
    28   18   27 1
    29   18   28 1
@<TRIPOS>MOLECULE
ZINC36751635
   34    35     0     0     0
SMALL
USER_CHARGES

@<TRIPOS>ATOM
      1 C1         -0.0184    1.5028    0.0103 C.3       1 <0>        -0.1129
      2 C2          0.0021   -0.0041    0.0020 C.ar      1 <0>        -0.0687
      3 C3          0.0057   -0.6882   -1.2000 C.ar      1 <0>        -0.0757
      4 C4          0.0240   -2.0707   -1.2121 C.ar      1 <0>        -0.5676
      5 C5          0.0391   -2.7732   -0.0230 C.ar      1 <0>        -0.0995
      6 C6          0.0360   -2.0893    1.1859 C.ar      1 <0>         0.1930
      7 C7          0.0228   -0.7000    1.1944 C.ar      1 <0>        -0.1301
      8 C8          0.0251    0.0464    2.5036 C.3       1 <0>        -0.1067
      9 N1          0.0513   -2.7965    2.3902 N.pl3     1 <0>        -0.8806
     10 S1          0.0274   -2.9373   -2.7463 S.o2      1 <0>         2.6063
     11 O1         -0.5050   -4.2285   -2.4845 O.2       1 <0>        -1.0260
     12 O2         -0.5403   -2.0602   -3.7094 O.2       1 <0>        -1.0242
     13 N2          1.6101   -3.1571   -3.1810 N.2       1 <0>        -1.0767
     14 C9          1.9226   -3.8237   -4.3699 C.ar      1 <0>         0.2585
     15 C10         0.9071   -4.2968   -5.1898 C.ar      1 <0>        -0.2192
     16 C11         1.2191   -4.9553   -6.3644 C.ar      1 <0>        -0.0338
     17 C12         2.5419   -5.1435   -6.7239 C.ar      1 <0>        -0.1738
     18 C13         3.5564   -4.6743   -5.9098 C.ar      1 <0>        -0.1081
     19 C14         3.2513   -4.0092   -4.7365 C.ar      1 <0>         0.0424
     20 F1          4.2426   -3.5455   -3.9443 F         1 <0>        -0.1404
     21 Br1        -0.1638   -5.6004   -7.4812 Br        1 <0>        -0.0819
     22 H1          1.0042    1.8801    0.0026 H         1 <0>         0.0707
     23 H2         -0.5455    1.8639   -0.8728 H         1 <0>         0.0684
     24 H3         -0.5286    1.8543    0.9071 H         1 <0>         0.0655
     25 H4         -0.0061   -0.1414   -2.1312 H         1 <0>         0.1331
     26 H5          0.0530   -3.8531   -0.0331 H         1 <0>         0.1335
     27 H6         -1.0019    0.2123    2.8290 H         1 <0>         0.0658
     28 H7          0.5541   -0.5398    3.2551 H         1 <0>         0.0590
     29 H8          0.5247    1.0064    2.3736 H         1 <0>         0.0702
     30 H9          0.0641   -3.7664    2.3830 H         1 <0>         0.3980
     31 H10         0.0491   -2.3178    3.2339 H         1 <0>         0.3944
     32 H11        -0.1257   -4.1507   -4.9100 H         1 <0>         0.1165
     33 H12         2.7826   -5.6585   -7.6422 H         1 <0>         0.1231
     34 H13         4.5879   -4.8234   -6.1929 H         1 <0>         0.1275
@<TRIPOS>BOND
     1    1    2 1
     2    1   22 1
     3    1   23 1
     4    1   24 1
     5    2    7 ar
     6    2    3 ar
     7    3    4 ar
     8    3   25 1
     9    4    5 ar
    10    4   10 1
    11    5    6 ar
    12    5   26 1
    13    6    7 ar
    14    6    9 1
    15    7    8 1
    16    8   27 1
    17    8   28 1
    18    8   29 1
    19    9   30 1
    20    9   31 1
    21   10   11 2
    22   10   12 2
    23   10   13 1
    24   13   14 1
    25   14   19 ar
    26   14   15 ar
    27   15   16 ar
    28   15   32 1
    29   16   17 ar
    30   16   21 1
    31   17   18 ar
    32   17   33 1
    33   18   19 ar
    34   18   34 1
    35   19   20 1
@<TRIPOS>MOLECULE
ZINC05371089
   45    48     0     0     0
SMALL
USER_CHARGES

@<TRIPOS>ATOM
      1 C1         -0.1188    0.6148    0.7836 C.3       1 <0>        -0.1638
      2 C2         -1.0167   -0.1508   -0.1538 C.2       1 <0>         0.3739
      3 N1         -2.2782   -0.3196    0.1422 N.2       1 <0>        -0.5234
      4 C3         -2.7842    0.1990    1.3038 C.ar      1 <0>         0.1195
      5 C4         -2.0773    0.0581    2.5001 C.ar      1 <0>        -0.1525
      6 C5         -2.5904    0.5824    3.6675 C.ar      1 <0>        -0.1278
      7 C6         -3.8079    1.2496    3.6550 C.ar      1 <0>         0.0631
      8 C7         -4.5143    1.3916    2.4682 C.ar      1 <0>        -0.1288
      9 C8         -4.0060    0.8755    1.2950 C.ar      1 <0>        -0.1093
     10 O1         -4.3100    1.7649    4.8082 O.3       1 <0>        -0.5015
     11 C9         -0.4756   -0.7055   -1.3961 C.2       1 <0>        -0.4553
     12 C10        -0.0225   -2.0538   -1.4418 C.2       1 <0>         0.4337
     13 C11         0.5127   -2.5590   -2.7190 C.ar      1 <0>        -0.1808
     14 C12         0.9743   -3.8706   -2.8371 C.ar      1 <0>        -0.0369
     15 C13         1.4681   -4.3128   -4.0444 C.ar      1 <0>        -0.1766
     16 C14         1.5080   -3.4613   -5.1392 C.ar      1 <0>        -0.0738
     17 C15         1.0555   -2.1636   -5.0371 C.ar      1 <0>        -0.1798
     18 C16         0.5527   -1.6968   -3.8268 C.ar      1 <0>         0.2099
     19 N2          0.0943   -0.3981   -3.7088 N.pl3     1 <0>        -0.4873
     20 C17        -0.4056    0.0808   -2.5436 C.2       1 <0>         0.5172
     21 O2         -0.8423    1.3552   -2.4924 O.3       1 <0>        -0.6641
     22 C18         0.1436    0.4449   -4.8253 C.ar      1 <0>         0.1559
     23 C19        -0.9231    0.4863   -5.7137 C.ar      1 <0>        -0.1047
     24 C20        -0.8715    1.3193   -6.8140 C.ar      1 <0>        -0.1150
     25 C21         0.2407    2.1118   -7.0317 C.ar      1 <0>        -0.1226
     26 C22         1.3047    2.0726   -6.1493 C.ar      1 <0>        -0.1155
     27 C23         1.2569    1.2459   -5.0439 C.ar      1 <0>        -0.1038
     28 O3         -0.0750   -2.7685   -0.4552 O.2       1 <0>        -0.5573
     29 H1          0.2720   -0.0604    1.5448 H         1 <0>         0.0776
     30 H2          0.7091    1.0471    0.2217 H         1 <0>         0.0725
     31 H3         -0.6881    1.4115    1.2624 H         1 <0>         0.0660
     32 H4         -1.1303   -0.4610    2.5108 H         1 <0>         0.1301
     33 H5         -2.0446    0.4736    4.5930 H         1 <0>         0.1223
     34 H6         -5.4613    1.9107    2.4632 H         1 <0>         0.1243
     35 H7         -4.5538    0.9907    0.3714 H         1 <0>         0.1273
     36 H8         -4.0364    2.6756    4.9840 H         1 <0>         0.3800
     37 H9          0.9447   -4.5353   -1.9864 H         1 <0>         0.1313
     38 H10         1.8265   -5.3271   -4.1392 H         1 <0>         0.1196
     39 H11         1.8977   -3.8191   -6.0808 H         1 <0>         0.1202
     40 H12         1.0916   -1.5095   -5.8958 H         1 <0>         0.1232
     41 H13        -1.7918   -0.1326   -5.5445 H         1 <0>         0.1226
     42 H14        -1.7006    1.3517   -7.5054 H         1 <0>         0.1236
     43 H15         0.2786    2.7624   -7.8929 H         1 <0>         0.1211
     44 H16         2.1720    2.6924   -6.3222 H         1 <0>         0.1235
     45 H17         2.0863    1.2191   -4.3527 H         1 <0>         0.1226
@<TRIPOS>BOND
     1    1    2 1
     2    1   29 1
     3    1   30 1
     4    1   31 1
     5    2    3 2
     6    2   11 1
     7    3    4 1
     8    4    9 ar
     9    4    5 ar
    10    5    6 ar
    11    5   32 1
    12    6    7 ar
    13    6   33 1
    14    7    8 ar
    15    7   10 1
    16    8    9 ar
    17    8   34 1
    18    9   35 1
    19   10   36 1
    20   11   20 2
    21   11   12 1
    22   12   13 1
    23   12   28 2
    24   13   18 ar
    25   13   14 ar
    26   14   15 ar
    27   14   37 1
    28   15   16 ar
    29   15   38 1
    30   16   17 ar
    31   16   39 1
    32   17   18 ar
    33   17   40 1
    34   18   19 1
    35   19   20 1
    36   19   22 1
    37   20   21 1
    38   22   27 ar
    39   22   23 ar
    40   23   24 ar
    41   23   41 1
    42   24   25 ar
    43   24   42 1
    44   25   26 ar
    45   25   43 1
    46   26   27 ar
    47   26   44 1
    48   27   45 1
@<TRIPOS>MOLECULE
ZINC55106949
   43    44     0     0     0
SMALL
USER_CHARGES

@<TRIPOS>ATOM
      1 C1         -0.0990    1.4876    0.0042 C.3       1 <0>        -0.1217
      2 C2         -0.0208   -0.0173    0.0026 C.ar      1 <0>        -0.0772
      3 C3         -0.0027   -0.7073   -1.1953 C.ar      1 <0>        -0.1196
      4 C4          0.0691   -2.0876   -1.1968 C.ar      1 <0>        -0.1205
      5 C5          0.1232   -2.7783   -0.0003 C.ar      1 <0>        -0.1191
      6 C6          0.1061   -2.0885    1.1973 C.ar      1 <0>        -0.1089
      7 C7          0.0386   -0.7075    1.1986 C.ar      1 <0>        -0.0874
      8 C8          0.0252    0.0449    2.5043 C.3       1 <0>         0.1804
      9 H1         -0.5846    0.9424    2.4002 H         1 <0>         0.1020
     10 C9          1.4548    0.4404    2.8797 C.3       1 <0>        -0.1566
     11 N1         -0.5370   -0.8085    3.5540 N.am      1 <0>        -0.7296
     12 C10        -1.1898   -0.2547    4.5950 C.2       1 <0>         0.5693
     13 O1         -1.3120    0.9531    4.6630 O.2       1 <0>        -0.5336
     14 C11        -1.7560   -1.1142    5.6522 C.ar      1 <0>        -0.1269
     15 C12        -1.6125   -2.5019    5.5803 C.ar      1 <0>        -0.1410
     16 C13        -2.1460   -3.3017    6.5760 C.ar      1 <0>         0.2696
     17 C14        -2.8236   -2.7265    7.6462 C.ar      1 <0>        -0.2127
     18 C15        -2.9690   -1.3563    7.7233 C.ar      1 <0>        -0.0994
     19 C16        -2.4351   -0.5422    6.7357 C.ar      1 <0>         0.0528
     20 O2         -2.5743    0.8058    6.8163 O.3       1 <0>        -0.4815
     21 N2         -2.0038   -4.6924    6.5058 N.2       1 <0>        -1.0983
     22 S1         -2.6414   -5.6510    7.6961 S.o2      1 <0>         2.5257
     23 O3         -1.9262   -5.2942    8.8710 O.2       1 <0>        -1.0296
     24 O4         -4.0452   -5.4473    7.6126 O.2       1 <0>        -1.0302
     25 C17        -2.2255   -7.3462    7.2021 C.3       1 <0>        -0.6363
     26 H2          0.9082    1.9038   -0.0155 H         1 <0>         0.0719
     27 H3         -0.6484    1.8238   -0.8751 H         1 <0>         0.0658
     28 H4         -0.6134    1.8238    0.9045 H         1 <0>         0.0731
     29 H5         -0.0450   -0.1678   -2.1299 H         1 <0>         0.1206
     30 H6          0.0825   -2.6266   -2.1325 H         1 <0>         0.1200
     31 H7          0.1786   -3.8569   -0.0014 H         1 <0>         0.1233
     32 H8          0.1480   -2.6280    2.1319 H         1 <0>         0.1235
     33 H9          1.8731    1.0753    2.0987 H         1 <0>         0.0633
     34 H10         1.4451    0.9846    3.8241 H         1 <0>         0.0663
     35 H11         2.0645   -0.4571    2.9838 H         1 <0>         0.0584
     36 H12        -0.4396   -1.7720    3.4997 H         1 <0>         0.4010
     37 H13        -1.0870   -2.9496    4.7498 H         1 <0>         0.1165
     38 H14        -3.2382   -3.3553    8.4202 H         1 <0>         0.1098
     39 H15        -3.4962   -0.9167    8.5570 H         1 <0>         0.1158
     40 H16        -3.3739    1.1447    6.3911 H         1 <0>         0.3686
     41 H17        -1.1424   -7.4504    7.1373 H         1 <0>         0.1154
     42 H18        -2.6143   -8.0460    7.9419 H         1 <0>         0.1015
     43 H19        -2.6700   -7.5608    6.2302 H         1 <0>         0.1153
@<TRIPOS>BOND
     1    1    2 1
     2    1   26 1
     3    1   27 1
     4    1   28 1
     5    2    7 ar
     6    2    3 ar
     7    3    4 ar
     8    3   29 1
     9    4    5 ar
    10    4   30 1
    11    5    6 ar
    12    5   31 1
    13    6    7 ar
    14    6   32 1
    15    7    8 1
    16    8    9 1
    17    8   10 1
    18    8   11 1
    19   10   33 1
    20   10   34 1
    21   10   35 1
    22   11   12 am
    23   11   36 1
    24   12   13 2
    25   12   14 1
    26   14   19 ar
    27   14   15 ar
    28   15   16 ar
    29   15   37 1
    30   16   17 ar
    31   16   21 1
    32   17   18 ar
    33   17   38 1
    34   18   19 ar
    35   18   39 1
    36   19   20 1
    37   20   40 1
    38   21   22 1
    39   22   23 2
    40   22   24 2
    41   22   25 1
    42   25   41 1
    43   25   42 1
    44   25   43 1
@<TRIPOS>MOLECULE
ZINC11953549
   39    39     0     0     0
SMALL
USER_CHARGES
2-[2-bromo-4-(1,1-dimethylpropyl)phenoxy]-2-methyl-propanoic acid
@<TRIPOS>ATOM
      1 C1         -5.3531    2.9366    0.0953 C.3       1 <0>        -0.1543
      2 C2         -3.9551    2.3155    0.1227 C.3       1 <0>        -0.1176
      3 C3         -2.9051    3.4151   -0.0481 C.3       1 <0>        -0.0135
      4 C4         -3.0361    4.4269    1.0921 C.3       1 <0>        -0.1401
      5 C5         -3.1221    4.1240   -1.3865 C.3       1 <0>        -0.1386
      6 C6         -1.5281    2.8033   -0.0211 C.ar      1 <0>        -0.1192
      7 C7         -1.3828    1.4371    0.1354 C.ar      1 <0>        -0.0793
      8 C8         -0.1217    0.8741    0.1658 C.ar      1 <0>        -0.1565
      9 C9          0.9997    1.6790    0.0281 C.ar      1 <0>         0.1898
     10 C10         0.8515    3.0494   -0.1342 C.ar      1 <0>        -0.1344
     11 C11        -0.4126    3.6083   -0.1582 C.ar      1 <0>        -0.0623
     12 Br1         2.3771    4.1506   -0.3230 Br        1 <0>        -0.0611
     13 O1          2.2413    1.1266    0.0516 O.3       1 <0>        -0.2885
     14 C12         2.3160   -0.3000    0.0883 C.3       1 <0>         0.0561
     15 C13         1.6143   -0.8793   -1.1417 C.3       1 <0>        -0.1746
     16 C14         3.7832   -0.7340    0.0900 C.3       1 <0>        -0.1152
     17 C15         1.6409   -0.8065    1.3368 C.2       1 <0>         0.4488
     18 O2          1.1465   -0.0259    2.1153 O.co2     1 <0>        -0.6128
     19 H1         -5.4464    3.6574    0.9076 H         1 <0>         0.0561
     20 H2         -5.5077    3.4416   -0.8582 H         1 <0>         0.0553
     21 H3         -6.1012    2.1532    0.2170 H         1 <0>         0.0504
     22 H4         -3.8618    1.5947   -0.6896 H         1 <0>         0.0649
     23 H5         -3.8006    1.8104    1.0762 H         1 <0>         0.0670
     24 H6         -2.2880    5.2103    0.9704 H         1 <0>         0.0544
     25 H7         -4.0320    4.8694    1.0726 H         1 <0>         0.0570
     26 H8         -2.8815    3.9218    2.0456 H         1 <0>         0.0571
     27 H9         -3.0288    3.4032   -2.1988 H         1 <0>         0.0548
     28 H10        -4.1180    4.5665   -1.4060 H         1 <0>         0.0571
     29 H11        -2.3740    4.9074   -1.5082 H         1 <0>         0.0544
     30 H12        -2.2561    0.8100    0.2378 H         1 <0>         0.1255
     31 H13        -0.0090   -0.1926    0.2923 H         1 <0>         0.1469
     32 H14        -0.5289    4.6746   -0.2844 H         1 <0>         0.1262
     33 H15         2.2138   -0.6794   -2.0298 H         1 <0>         0.0550
     34 H16         1.4949   -1.9557   -1.0186 H         1 <0>         0.0808
     35 H17         0.6342   -0.4154   -1.2530 H         1 <0>         0.0668
     36 H18         4.3033   -0.2533    0.9186 H         1 <0>         0.0585
     37 H19         3.8418   -1.8165    0.2032 H         1 <0>         0.0830
     38 H20         4.2498   -0.4412   -0.8506 H         1 <0>         0.0542
     39 O3          1.5889   -2.1248    1.5840 O.co2     1 <0>        -0.7519
@<TRIPOS>BOND
     1    1    2 1
     2    1   19 1
     3    1   20 1
     4    1   21 1
     5    2    3 1
     6    2   22 1
     7    2   23 1
     8    3    4 1
     9    3    5 1
    10    3    6 1
    11    4   24 1
    12    4   25 1
    13    4   26 1
    14    5   27 1
    15    5   28 1
    16    5   29 1
    17    6   11 ar
    18    6    7 ar
    19    7    8 ar
    20    7   30 1
    21    8    9 ar
    22    8   31 1
    23    9   10 ar
    24    9   13 1
    25   10   11 ar
    26   10   12 1
    27   11   32 1
    28   13   14 1
    29   14   15 1
    30   14   16 1
    31   14   17 1
    32   15   33 1
    33   15   34 1
    34   15   35 1
    35   16   36 1
    36   16   37 1
    37   16   38 1
    38   17   18 2
    39   17   39 1
@<TRIPOS>MOLECULE
ZINC04876974
   27    27     0     0     0
SMALL
USER_CHARGES
4,4,5,5,6,6,6-heptafluoro-1-(5-methyl-2-thienyl)hexane-1,3-dione
@<TRIPOS>ATOM
      1 C1          1.3799    3.5382    0.0075 C.3       1 <0>        -0.0647
      2 C2          1.1615    2.0471    0.0020 C.2       1 <0>        -0.2077
      3 C3         -0.0165    1.3657    0.0096 C.2       1 <0>        -0.1673
      4 C4          0.0021   -0.0041    0.0020 C.2       1 <0>        -0.1342
      5 C5          1.2500   -0.6192   -0.0132 C.2       1 <0>        -0.1659
      6 S1          2.3502    0.7853   -0.0162 S.3       1 <0>         0.1284
      7 C6          1.5638   -1.9962   -0.0240 C.2       1 <0>         0.4168
      8 O1          0.6734   -2.8220   -0.0203 O.3       1 <0>        -0.5058
      9 C7          3.0037   -2.4407   -0.0400 C.2       1 <0>        -0.5793
     10 C8          3.0645   -3.9464   -0.0492 C.2       1 <0>         0.3306
     11 O2          2.0440   -4.5920   -0.0433 O.2       1 <0>        -0.4656
     12 C9          4.3989   -4.6466   -0.0657 C.3       1 <0>         0.2145
     13 C10         5.2238   -4.1441   -1.2523 C.3       1 <0>         0.2436
     14 C11         6.5786   -4.8549   -1.2690 C.3       1 <0>         0.4211
     15 F1          6.3799   -6.2345   -1.3900 F         1 <0>        -0.1509
     16 F2          7.3328   -4.3955   -2.3540 F         1 <0>        -0.1596
     17 F3          7.2617   -4.5848   -0.0784 F         1 <0>        -0.1495
     18 F4          4.5407   -4.4143   -2.4429 F         1 <0>        -0.1408
     19 F5          5.4225   -2.7646   -1.1313 F         1 <0>        -0.1292
     20 F6          5.0820   -4.3764    1.1249 F         1 <0>        -0.1639
     21 F7          4.2002   -6.0261   -0.1867 F         1 <0>        -0.1667
     22 H1          0.4069    4.0512    0.0197 H         1 <0>         0.0726
     23 H2          1.9372    3.8305   -0.8947 H         1 <0>         0.0712
     24 H3          1.9549    3.8212    0.9015 H         1 <0>         0.0712
     25 H4         -0.9556    1.8990    0.0169 H         1 <0>         0.1227
     26 H5         -0.9111   -0.5807    0.0080 H         1 <0>         0.1362
     27 H6          3.8102   -1.6927   -0.0432 H         1 <0>         0.1225
@<TRIPOS>BOND
     1    1    2 1
     2    1   22 1
     3    1   23 1
     4    1   24 1
     5    2    6 1
     6    2    3 2
     7    3    4 1
     8    3   25 1
     9    4    5 2
    10    4   26 1
    11    5    6 1
    12    5    7 1
    13    7    8 1
    14    7    9 2
    15    9   10 1
    16    9   27 1
    17   10   11 2
    18   10   12 1
    19   12   13 1
    20   12   20 1
    21   12   21 1
    22   13   14 1
    23   13   18 1
    24   13   19 1
    25   14   15 1
    26   14   16 1
    27   14   17 1
@<TRIPOS>MOLECULE
ZINC36670605
   29    30     0     0     0
SMALL
USER_CHARGES

@<TRIPOS>ATOM
      1 C1          0.6480    0.2674    1.1779 C.ar      1 <0>        -0.1502
      2 C2          1.8349    0.9756    1.1776 C.ar      1 <0>        -0.0631
      3 C3          2.3809    1.4126   -0.0195 C.ar      1 <0>         0.0422
      4 C4          1.7334    1.1375   -1.2179 C.ar      1 <0>         0.1240
      5 C5          0.5461    0.4287   -1.2137 C.ar      1 <0>        -0.1825
      6 C6          0.0033   -0.0063   -0.0161 C.ar      1 <0>         0.1318
      7 F1         -1.1565   -0.6991   -0.0132 F         1 <0>        -0.1275
      8 F2          2.2631    1.5625   -2.3858 F         1 <0>        -0.1144
      9 O1          3.5483    2.1097   -0.0209 O.3       1 <0>        -0.2302
     10 C7          3.4828    3.4609   -0.1179 C.ar      1 <0>         0.1204
     11 C8          2.2541    4.1021   -0.0953 C.ar      1 <0>        -0.1641
     12 C9          2.1889    5.4792   -0.1938 C.ar      1 <0>        -0.0687
     13 C10         3.3487    6.2307   -0.3157 C.ar      1 <0>        -0.1112
     14 C11         4.5784    5.6124   -0.3405 C.ar      1 <0>        -0.0836
     15 C12         4.6607    4.2183   -0.2359 C.ar      1 <0>        -0.0282
     16 C13         5.9680    3.5523   -0.2549 C.2       1 <0>        -0.1179
     17 C14         7.1002    4.2863   -0.3688 C.2       1 <0>        -0.1513
     18 C15         8.3589    3.6451   -0.3871 C.2       1 <0>         0.4984
     19 O2          8.4261    2.4246   -0.2999 O.co2     1 <0>        -0.6906
     20 O3          9.3835    4.3093   -0.4901 O.co2     1 <0>        -0.6971
     21 Br1         0.5079    6.3445   -0.1627 Br        1 <0>        -0.0555
     22 H1          0.2254   -0.0766    2.1103 H         1 <0>         0.1523
     23 H2          2.3368    1.1889    2.1098 H         1 <0>         0.1569
     24 H3          0.0417    0.2146   -2.1444 H         1 <0>         0.1562
     25 H4          1.3463    3.5248   -0.0011 H         1 <0>         0.1325
     26 H5          3.2865    7.3063   -0.3920 H         1 <0>         0.1357
     27 H6          5.4783    6.2018   -0.4363 H         1 <0>         0.1476
     28 H7          6.0272    2.4767   -0.1781 H         1 <0>         0.1363
     29 H8          7.0409    5.3620   -0.4456 H         1 <0>         0.1019
@<TRIPOS>BOND
     1    1    6 ar
     2    1    2 ar
     3    1   22 1
     4    2    3 ar
     5    2   23 1
     6    3    4 ar
     7    3    9 1
     8    4    5 ar
     9    4    8 1
    10    5    6 ar
    11    5   24 1
    12    6    7 1
    13    9   10 1
    14   10   15 ar
    15   10   11 ar
    16   11   12 ar
    17   11   25 1
    18   12   13 ar
    19   12   21 1
    20   13   14 ar
    21   13   26 1
    22   14   15 ar
    23   14   27 1
    24   15   16 1
    25   16   17 2
    26   16   28 1
    27   17   18 1
    28   17   29 1
    29   18   19 2
    30   18   20 1
@<TRIPOS>MOLECULE
ZINC41986872
   38    39     0     0     0
SMALL
USER_CHARGES

@<TRIPOS>ATOM
      1 C1          0.0061    1.4450   -0.0233 C.3       1 <0>        -0.1096
      2 C2          0.1395   -0.0559   -0.0049 C.ar      1 <0>        -0.0846
      3 C3          0.2443   -0.7553   -1.1911 C.ar      1 <0>        -0.1182
      4 C4          0.3672   -2.1326   -1.1751 C.ar      1 <0>        -0.1347
      5 C5          0.3852   -2.8148    0.0280 C.ar      1 <0>        -0.1187
      6 C6          0.2804   -2.1224    1.2178 C.ar      1 <0>        -0.0939
      7 C7          0.1630   -0.7374    1.2059 C.ar      1 <0>        -0.0536
      8 S1          0.0363    0.1513    2.7220 S.3       1 <0>        -0.0935
      9 C8         -0.0985   -1.1470    3.9817 C.3       1 <0>        -0.0881
     10 C9         -1.3270   -2.0122    3.6931 C.3       1 <0>        -0.1408
     11 C10        -0.2382   -0.5143    5.3423 C.ar      1 <0>        -0.0197
     12 C11        -1.3596   -0.7701    6.1102 C.ar      1 <0>        -0.0939
     13 C12        -1.4913   -0.1917    7.3571 C.ar      1 <0>        -0.0991
     14 C13        -0.4949    0.6479    7.8404 C.ar      1 <0>        -0.0933
     15 C14         0.6308    0.9023    7.0662 C.ar      1 <0>        -0.1294
     16 C15         0.7580    0.3163    5.8224 C.ar      1 <0>        -0.0816
     17 S2         -0.6588    1.3887    9.4308 S.3       1 <0>        -0.1374
     18 C16         0.8535    2.3735    9.6141 C.3       1 <0>        -0.1400
     19 C17         1.1392   -2.0063    3.9520 C.2       1 <0>         0.5069
     20 O1          2.0297   -1.7651    3.1549 O.co2     1 <0>        -0.6588
     21 O2          1.2500   -2.9425    4.7251 O.co2     1 <0>        -0.6735
     22 H1          0.9971    1.8982    0.0038 H         1 <0>         0.0680
     23 H2         -0.5094    1.7528   -0.9330 H         1 <0>         0.0619
     24 H3         -0.5657    1.7697    0.8460 H         1 <0>         0.0695
     25 H4          0.2299   -0.2260   -2.1324 H         1 <0>         0.1163
     26 H5          0.4489   -2.6769   -2.1043 H         1 <0>         0.1139
     27 H6          0.4809   -3.8905    0.0367 H         1 <0>         0.1154
     28 H7          0.2942   -2.6557    2.1568 H         1 <0>         0.1404
     29 H8         -1.1916   -2.5301    2.7436 H         1 <0>         0.0661
     30 H9         -1.4519   -2.7437    4.4914 H         1 <0>         0.0714
     31 H10        -2.2125   -1.3790    3.6385 H         1 <0>         0.0579
     32 H11        -2.1335   -1.4227    5.7340 H         1 <0>         0.1314
     33 H12        -2.3676   -0.3914    7.9559 H         1 <0>         0.1245
     34 H13         1.4071    1.5543    7.4386 H         1 <0>         0.1199
     35 H14         1.6344    0.5103    5.2218 H         1 <0>         0.1292
     36 H15         1.7230    1.7189    9.5536 H         1 <0>         0.0830
     37 H16         0.9020    3.1165    8.8180 H         1 <0>         0.0822
     38 H17         0.8443    2.8769   10.5808 H         1 <0>         0.1045
@<TRIPOS>BOND
     1    1    2 1
     2    1   22 1
     3    1   23 1
     4    1   24 1
     5    2    7 ar
     6    2    3 ar
     7    3    4 ar
     8    3   25 1
     9    4    5 ar
    10    4   26 1
    11    5    6 ar
    12    5   27 1
    13    6    7 ar
    14    6   28 1
    15    7    8 1
    16    8    9 1
    17    9   10 1
    18    9   11 1
    19    9   19 1
    20   10   29 1
    21   10   30 1
    22   10   31 1
    23   11   16 ar
    24   11   12 ar
    25   12   13 ar
    26   12   32 1
    27   13   14 ar
    28   13   33 1
    29   14   15 ar
    30   14   17 1
    31   15   16 ar
    32   15   34 1
    33   16   35 1
    34   17   18 1
    35   18   36 1
    36   18   37 1
    37   18   38 1
    38   19   20 2
    39   19   21 1
@<TRIPOS>MOLECULE
ZINC59383725
   27    29     0     0     0
SMALL
USER_CHARGES

@<TRIPOS>ATOM
      1 C1         -0.0169    1.3941    0.0097 C.ar      1 <0>        -0.0805
      2 C2          1.1694    2.0963    0.0022 C.ar      1 <0>        -0.1170
      3 C3          2.3783    1.4200   -0.0130 C.ar      1 <0>        -0.0254
      4 C4          2.4046    0.0349   -0.0212 C.ar      1 <0>        -0.1178
      5 C5          1.2260   -0.6801   -0.0138 C.ar      1 <0>        -0.0637
      6 C6          0.0021   -0.0041    0.0020 C.ar      1 <0>        -0.0573
      7 C7         -1.2607   -0.7608    0.0105 C.2       1 <0>         0.1655
      8 N1         -1.2395   -2.0637    0.0033 N.2       1 <0>        -0.4466
      9 C8         -2.4124   -2.7666    0.0112 C.ar      1 <0>         0.0337
     10 C9         -3.4551   -2.4010    0.8731 C.ar      1 <0>        -0.1216
     11 C10        -4.6271   -3.0845    0.8966 C.ar      1 <0>        -0.0891
     12 C11        -4.8414   -4.1974    0.0476 C.ar      1 <0>         0.1402
     13 C12        -3.7743   -4.5473   -0.8136 C.ar      1 <0>        -0.1657
     14 C13        -2.5919   -3.8577   -0.8449 C.ar      1 <0>        -0.0203
     15 S1         -4.4322   -5.9508   -1.6821 S.3       1 <0>        -0.1156
     16 C14        -6.0274   -5.9856   -0.8770 C.2       1 <0>         0.3712
     17 S2         -7.3707   -7.0965   -1.1337 S.3       1 <0>        -0.6829
     18 N2         -5.9435   -4.9714   -0.0443 N.2       1 <0>        -0.5744
     19 Cl1         3.8674    2.3123   -0.0224 Cl        1 <0>        -0.0733
     20 H1         -0.9586    1.9225    0.0260 H         1 <0>         0.1384
     21 H2          1.1563    3.1762    0.0077 H         1 <0>         0.1359
     22 H3          3.3506   -0.4859   -0.0337 H         1 <0>         0.1354
     23 H4          1.2479   -1.7599   -0.0205 H         1 <0>         0.1457
     24 H5         -2.2046   -0.2361    0.0227 H         1 <0>         0.1106
     25 H6         -3.3228   -1.5568    1.5335 H         1 <0>         0.1212
     26 H7         -5.4091   -2.7749    1.5741 H         1 <0>         0.1256
     27 H8         -1.8044   -4.1557   -1.5213 H         1 <0>         0.1278
@<TRIPOS>BOND
     1    1    6 ar
     2    1    2 ar
     3    1   20 1
     4    2    3 ar
     5    2   21 1
     6    3    4 ar
     7    3   19 1
     8    4    5 ar
     9    4   22 1
    10    5    6 ar
    11    5   23 1
    12    6    7 1
    13    7    8 2
    14    7   24 1
    15    8    9 1
    16    9   14 ar
    17    9   10 ar
    18   10   11 ar
    19   10   25 1
    20   11   12 ar
    21   11   26 1
    22   12   18 1
    23   12   13 ar
    24   13   14 ar
    25   13   15 1
    26   14   27 1
    27   15   16 1
    28   16   17 1
    29   16   18 2
@<TRIPOS>MOLECULE
ZINC00783180
   43    45     0     0     0
SMALL
USER_CHARGES

@<TRIPOS>ATOM
      1 C1         -0.0187    1.5258    0.0104 C.3       1 <0>        -0.1427
      2 C2          0.0021   -0.0041    0.0020 C.3       1 <0>        -0.0517
      3 C3         -1.4315   -0.5380    0.0384 C.3       1 <0>        -0.0897
      4 C4         -1.4093   -2.0463    0.0800 C.2       1 <0>         0.2240
      5 C5         -0.3974   -2.7102    0.6783 C.2       1 <0>        -0.2669
      6 C6         -0.3833   -4.2172    0.7309 C.3       1 <0>         0.0888
      7 H1          0.6283   -4.5722    0.5343 H         1 <0>         0.0995
      8 C7         -1.3170   -4.8032   -0.2869 C.2       1 <0>        -0.0991
      9 C8         -2.2964   -4.0505   -0.8561 C.2       1 <0>         0.1689
     10 N1         -2.4403   -2.7277   -0.5076 N.pl3     1 <0>        -0.6373
     11 S1         -3.3826   -4.7710   -2.0418 S.3       1 <0>        -0.0548
     12 C9         -4.4908   -3.4116   -2.5048 C.3       1 <0>        -0.1640
     13 C10        -1.1742   -6.1768   -0.6655 C.1       1 <0>         0.2562
     14 N2         -1.0610   -7.2665   -0.9659 N.1       1 <0>        -0.4037
     15 C11        -0.8066   -4.6676    2.1053 C.ar      1 <0>        -0.0677
     16 C12        -2.0560   -4.3279    2.5895 C.ar      1 <0>        -0.0929
     17 C13        -2.4448   -4.7407    3.8499 C.ar      1 <0>        -0.1123
     18 C14        -1.5832   -5.4942    4.6271 C.ar      1 <0>        -0.0345
     19 C15        -0.3328   -5.8339    4.1421 C.ar      1 <0>        -0.1083
     20 C16         0.0527   -5.4252    2.8792 C.ar      1 <0>        -0.0858
     21 Cl1        -2.0705   -6.0126    6.2106 Cl        1 <0>        -0.0721
     22 C17         0.6749   -2.0182    1.2676 C.2       1 <0>         0.4057
     23 O1          1.5645   -2.6457    1.8075 O.2       1 <0>        -0.4623
     24 C18         0.7425   -0.5158    1.2421 C.3       1 <0>        -0.1593
     25 C19         0.7087   -0.5017   -1.2605 C.3       1 <0>        -0.1532
     26 H2          1.0039    1.9031    0.0027 H         1 <0>         0.0657
     27 H3         -0.5459    1.8868   -0.8726 H         1 <0>         0.0617
     28 H4         -0.5289    1.8773    0.9072 H         1 <0>         0.0615
     29 H5         -1.9379   -0.1579    0.9257 H         1 <0>         0.1030
     30 H6         -1.9647   -0.2073   -0.8529 H         1 <0>         0.0921
     31 H7         -3.2801   -2.2738   -0.6798 H         1 <0>         0.4178
     32 H8         -5.0229   -3.0595   -1.6210 H         1 <0>         0.0896
     33 H9         -3.9063   -2.5940   -2.9268 H         1 <0>         0.0917
     34 H10        -5.2091   -3.7645   -3.2448 H         1 <0>         0.1236
     35 H11        -2.7284   -3.7394    1.9828 H         1 <0>         0.1216
     36 H12        -3.4209   -4.4750    4.2282 H         1 <0>         0.1313
     37 H13         0.3404   -6.4217    4.7484 H         1 <0>         0.1340
     38 H14         1.0269   -5.6944    2.4986 H         1 <0>         0.1330
     39 H15         1.7844   -0.1982    1.2018 H         1 <0>         0.0997
     40 H16         0.2717   -0.1143    2.1395 H         1 <0>         0.1022
     41 H17         1.7317   -0.1258   -1.2764 H         1 <0>         0.0651
     42 H18         0.7219   -1.5916   -1.2638 H         1 <0>         0.0605
     43 H19         0.1758   -0.1422   -2.1408 H         1 <0>         0.0609
@<TRIPOS>BOND
     1    1    2 1
     2    1   26 1
     3    1   27 1
     4    1   28 1
     5    2   24 1
     6    2    3 1
     7    2   25 1
     8    3    4 1
     9    3   29 1
    10    3   30 1
    11    4   10 1
    12    4    5 2
    13    5    6 1
    14    5   22 1
    15    6    7 1
    16    6    8 1
    17    6   15 1
    18    8    9 2
    19    8   13 1
    20    9   10 1
    21    9   11 1
    22   10   31 1
    23   11   12 1
    24   12   32 1
    25   12   33 1
    26   12   34 1
    27   13   14 3
    28   15   20 ar
    29   15   16 ar
    30   16   17 ar
    31   16   35 1
    32   17   18 ar
    33   17   36 1
    34   18   19 ar
    35   18   21 1
    36   19   20 ar
    37   19   37 1
    38   20   38 1
    39   22   23 2
    40   22   24 1
    41   24   39 1
    42   24   40 1
    43   25   41 1
    44   25   42 1
    45   25   43 1
@<TRIPOS>MOLECULE
ZINC32120029
   34    35     0     0     0
SMALL
USER_CHARGES
(2R)-2-[4-(p-tolyl)phenyl]sulfanylpropanoic acid
@<TRIPOS>ATOM
      1 C1         10.5676    3.1815    0.8615 C.3       1 <0>        -0.1165
      2 C2          9.1628    2.6421    0.9430 C.ar      1 <0>        -0.0896
      3 C3          8.2131    3.0518    0.0245 C.ar      1 <0>        -0.1187
      4 C4          6.9250    2.5611    0.0944 C.ar      1 <0>        -0.1066
      5 C5          6.5820    1.6512    1.0928 C.ar      1 <0>        -0.0453
      6 C6          7.5416    1.2463    2.0190 C.ar      1 <0>        -0.1063
      7 C7          8.8279    1.7396    1.9363 C.ar      1 <0>        -0.1195
      8 C8          5.1993    1.1202    1.1730 C.ar      1 <0>        -0.0381
      9 C9          4.8581    0.2100    2.1725 C.ar      1 <0>        -0.1203
     10 C10         3.5729   -0.2826    2.2452 C.ar      1 <0>        -0.0709
     11 C11         2.6167    0.1277    1.3223 C.ar      1 <0>        -0.1149
     12 C12         2.9567    1.0316    0.3213 C.ar      1 <0>        -0.0746
     13 C13         4.2394    1.5304    0.2487 C.ar      1 <0>        -0.1191
     14 S1          0.9745   -0.5039    1.4168 S.3       1 <0>        -0.0975
     15 C14         0.0726    0.7578    2.3577 C.3       1 <0>        -0.1229
     16 H1          0.1054    1.8047    2.0215 H         1 <0>         0.0930
     17 C15         0.5918    0.7893    3.7965 C.3       1 <0>        -0.1287
     18 C16        -1.3975    0.4264    2.3613 C.2       1 <0>         0.4836
     19 O1         -1.7595   -0.7166    2.2114 O.co2     1 <0>        -0.6174
     20 O2         -2.3048    1.4010    2.5311 O.co2     1 <0>        -0.7557
     21 H2         10.6437    3.8799    0.0150 H         1 <0>         0.0646
     22 H3         11.2719    2.3494    0.7148 H         1 <0>         0.0689
     23 H4         10.8126    3.7090    1.7952 H         1 <0>         0.0690
     24 H5          8.4801    3.7567   -0.7489 H         1 <0>         0.1227
     25 H6          6.1842    2.8819   -0.6230 H         1 <0>         0.1264
     26 H7          7.2800    0.5449    2.7974 H         1 <0>         0.1263
     27 H8          9.5733    1.4234    2.6510 H         1 <0>         0.1225
     28 H9          5.6004   -0.1091    2.8891 H         1 <0>         0.1258
     29 H10         3.3081   -0.9874    3.0195 H         1 <0>         0.1326
     30 H11         2.2139    1.3459   -0.3970 H         1 <0>         0.1319
     31 H12         4.5021    2.2351   -0.5264 H         1 <0>         0.1258
     32 H13         0.0448    1.5544    4.3670 H         1 <0>         0.0629
     33 H14         1.6649    1.0312    3.7938 H         1 <0>         0.0460
     34 H15         0.4390   -0.1951    4.2631 H         1 <0>         0.0607
@<TRIPOS>BOND
     1    1    2 1
     2    1   21 1
     3    1   22 1
     4    1   23 1
     5    2    7 ar
     6    2    3 ar
     7    3    4 ar
     8    3   24 1
     9    4    5 ar
    10    4   25 1
    11    5    6 ar
    12    5    8 1
    13    6    7 ar
    14    6   26 1
    15    7   27 1
    16    8   13 ar
    17    8    9 ar
    18    9   10 ar
    19    9   28 1
    20   10   11 ar
    21   10   29 1
    22   11   12 ar
    23   11   14 1
    24   12   13 ar
    25   12   30 1
    26   13   31 1
    27   14   15 1
    28   15   16 1
    29   15   17 1
    30   15   18 1
    31   17   32 1
    32   17   33 1
    33   17   34 1
    34   18   19 2
    35   18   20 1
@<TRIPOS>MOLECULE
ZINC39296400
   33    35     0     0     0
SMALL
USER_CHARGES

@<TRIPOS>ATOM
      1 C1         -0.2207    1.4970    0.0310 C.3       1 <0>        -0.1085
      2 C2         -0.1569   -0.0086    0.0182 C.ar      1 <0>        -0.0892
      3 C3         -1.1972   -0.7372   -0.5311 C.ar      1 <0>        -0.1328
      4 C4         -1.1456   -2.1155   -0.5462 C.ar      1 <0>        -0.1009
      5 C5         -0.0395   -2.7756   -0.0058 C.ar      1 <0>         0.0144
      6 C6          1.0072   -2.0335    0.5466 C.ar      1 <0>        -0.0263
      7 C7          0.9443   -0.6557    0.5506 C.ar      1 <0>        -0.1284
      8 C8          0.0228   -4.2501   -0.0179 C.2       1 <0>        -0.0672
      9 C9          0.1661   -5.1154    1.0595 C.2       1 <0>        -0.1347
     10 C10         0.2004   -6.5538    0.7837 C.ar      1 <0>        -0.0508
     11 C11         0.3371   -7.6172    1.7040 C.ar      1 <0>        -0.0540
     12 C12         0.3510   -8.9183    1.2730 C.ar      1 <0>        -0.1105
     13 C13         0.2321   -9.2319   -0.0734 C.ar      1 <0>        -0.1063
     14 C14         0.0965   -8.2155   -0.9980 C.ar      1 <0>        -0.0888
     15 C15         0.0813   -6.9025   -0.5744 C.ar      1 <0>        -0.1257
     16 S1         -0.0756   -5.3489   -1.4171 S.3       1 <0>        -0.0041
     17 C16         0.4989  -10.0291    2.2805 C.3       1 <0>        -0.1073
     18 C17         0.2761   -4.6223    2.3831 C.2       1 <0>         0.5240
     19 O1          0.1860   -3.4195    2.5983 O.co2     1 <0>        -0.6714
     20 O2          0.4614   -5.3987    3.3126 O.co2     1 <0>        -0.6877
     21 H1          0.2240    1.8873   -0.8844 H         1 <0>         0.0642
     22 H2         -1.2611    1.8160    0.0943 H         1 <0>         0.0614
     23 H3          0.3287    1.8766    0.8925 H         1 <0>         0.0630
     24 H4         -2.0518   -0.2255   -0.9485 H         1 <0>         0.1169
     25 H5         -1.9585   -2.6829   -0.9746 H         1 <0>         0.1170
     26 H6          1.8652   -2.5374    0.9665 H         1 <0>         0.1198
     27 H7          1.7545   -0.0806    0.9740 H         1 <0>         0.1182
     28 H8          0.4319   -7.4026    2.7581 H         1 <0>         0.1552
     29 H9          0.2458  -10.2627   -0.3955 H         1 <0>         0.1251
     30 H10         0.0031   -8.4474   -2.0487 H         1 <0>         0.1226
     31 H11        -0.4872  -10.3414    2.6244 H         1 <0>         0.0654
     32 H12         1.0067  -10.8749    1.8169 H         1 <0>         0.0607
     33 H13         1.0842   -9.6746    3.1290 H         1 <0>         0.0668
@<TRIPOS>BOND
     1    1    2 1
     2    1   21 1
     3    1   22 1
     4    1   23 1
     5    2    7 ar
     6    2    3 ar
     7    3    4 ar
     8    3   24 1
     9    4    5 ar
    10    4   25 1
    11    5    6 ar
    12    5    8 1
    13    6    7 ar
    14    6   26 1
    15    7   27 1
    16    8   16 1
    17    8    9 2
    18    9   10 1
    19    9   18 1
    20   10   15 ar
    21   10   11 ar
    22   11   12 ar
    23   11   28 1
    24   12   13 ar
    25   12   17 1
    26   13   14 ar
    27   13   29 1
    28   14   15 ar
    29   14   30 1
    30   15   16 1
    31   17   31 1
    32   17   32 1
    33   17   33 1
    34   18   19 2
    35   18   20 1
@<TRIPOS>MOLECULE
ZINC41981420
   33    33     0     0     0
SMALL
USER_CHARGES

@<TRIPOS>ATOM
      1 C1         -0.9798    0.9387   -0.8458 C.3       1 <0>        -0.1050
      2 C2         -0.0724   -0.2192   -0.4252 C.3       1 <0>        -0.0631
      3 C3          0.4738    0.0461    0.9541 C.ar      1 <0>        -0.0331
      4 C4         -0.1370   -0.5166    2.0592 C.ar      1 <0>        -0.1143
      5 C5          0.3639   -0.2739    3.3244 C.ar      1 <0>        -0.1099
      6 C6          1.4765    0.5322    3.4846 C.ar      1 <0>        -0.0985
      7 C7          2.0874    1.0950    2.3785 C.ar      1 <0>        -0.1046
      8 C8          1.5890    0.8475    1.1133 C.ar      1 <0>        -0.1017
      9 Br1         2.1619    0.8651    5.2153 Br        1 <0>        -0.0796
     10 C9          1.0685   -0.3437   -1.4019 C.2       1 <0>         0.5110
     11 O1          2.0270    0.4050   -1.3183 O.co2     1 <0>        -0.6713
     12 O2          1.0329   -1.1932   -2.2757 O.co2     1 <0>        -0.6510
     13 S1         -1.0273   -1.7614   -0.4110 S.3       1 <0>        -0.2452
     14 C10         0.2170   -3.0452   -0.1042 C.3       1 <0>        -0.0107
     15 C11         1.4518   -2.4145    0.5425 C.3       1 <0>        -0.1698
     16 C12        -0.3645   -4.1053    0.8334 C.3       1 <0>        -0.1258
     17 C13         0.6130   -3.6988   -1.4296 C.3       1 <0>        -0.1553
     18 H1         -0.4302    1.8769   -0.7701 H         1 <0>         0.0673
     19 H2         -1.3048    0.7900   -1.8755 H         1 <0>         0.0633
     20 H3         -1.8508    0.9739   -0.1914 H         1 <0>         0.0521
     21 H4         -1.0059   -1.1456    1.9340 H         1 <0>         0.1424
     22 H5         -0.1136   -0.7132    4.1877 H         1 <0>         0.1223
     23 H6          2.9562    1.7244    2.5031 H         1 <0>         0.1237
     24 H7          2.0683    1.2835    0.2493 H         1 <0>         0.1818
     25 H8          1.1862   -2.0178    1.5224 H         1 <0>         0.0666
     26 H9          2.2291   -3.1703    0.6550 H         1 <0>         0.0488
     27 H10         1.8198   -1.6060   -0.0892 H         1 <0>         0.0889
     28 H11        -1.1921   -4.6134    0.3386 H         1 <0>         0.0545
     29 H12         0.4089   -4.8309    1.0855 H         1 <0>         0.0582
     30 H13        -0.7243   -3.6267    1.7442 H         1 <0>         0.0570
     31 H14         1.1264   -2.9688   -2.0555 H         1 <0>         0.1212
     32 H15         1.2766   -4.5414   -1.2353 H         1 <0>         0.0339
     33 H16        -0.2817   -4.0517   -1.9424 H         1 <0>         0.0459
@<TRIPOS>BOND
     1    1    2 1
     2    1   18 1
     3    1   19 1
     4    1   20 1
     5    2    3 1
     6    2   10 1
     7    2   13 1
     8    3    8 ar
     9    3    4 ar
    10    4    5 ar
    11    4   21 1
    12    5    6 ar
    13    5   22 1
    14    6    7 ar
    15    6    9 1
    16    7    8 ar
    17    7   23 1
    18    8   24 1
    19   10   11 2
    20   10   12 1
    21   13   14 1
    22   14   15 1
    23   14   16 1
    24   14   17 1
    25   15   25 1
    26   15   26 1
    27   15   27 1
    28   16   28 1
    29   16   29 1
    30   16   30 1
    31   17   31 1
    32   17   32 1
    33   17   33 1
@<TRIPOS>MOLECULE
ZINC50577750
   42    43     0     0     0
SMALL
USER_CHARGES

@<TRIPOS>ATOM
      1 C1         -0.4771    1.4597    0.0335 C.3       1 <0>        -0.1185
      2 C2         -0.2186   -0.0248    0.0132 C.ar      1 <0>        -0.0333
      3 C3         -0.2141   -0.7022   -1.1730 C.ar      1 <0>        -0.1959
      4 C4          0.0247   -2.0741   -1.1929 C.ar      1 <0>         0.2124
      5 C5          0.2598   -2.7618   -0.0045 C.ar      1 <0>        -0.2019
      6 C6          0.2571   -2.0928    1.1860 C.ar      1 <0>        -0.0656
      7 C7          0.0231   -0.7113    1.2103 C.ar      1 <0>        -0.0974
      8 C8          0.0247    0.0131    2.4867 C.2       1 <0>        -0.1025
      9 C9          0.2585   -0.6523    3.6425 C.2       1 <0>        -0.1839
     10 C10         0.2601    0.0450    4.8712 C.2       1 <0>         0.5014
     11 O1          0.0498    1.2520    4.8909 O.co2     1 <0>        -0.6993
     12 O2          0.4717   -0.5572    5.9172 O.co2     1 <0>        -0.7041
     13 N1          0.0279   -2.7594   -2.4025 N.pl3     1 <0>        -0.6212
     14 C11        -0.0929   -2.0274   -3.6710 C.3       1 <0>         0.1256
     15 C12         1.1715   -1.2078   -3.8949 C.3       1 <0>        -0.1478
     16 C13         2.3263   -2.1526   -4.2679 C.3       1 <0>        -0.1182
     17 C14         2.8493   -2.8359   -3.0094 C.3       1 <0>        -0.1240
     18 C15         2.5668   -4.3488   -3.0533 C.3       1 <0>        -0.1139
     19 C16         1.1370   -4.5924   -3.5365 C.3       1 <0>        -0.1483
     20 C17         0.1568   -4.2068   -2.4261 C.3       1 <0>         0.1209
     21 H1          0.4678    1.9944   -0.0636 H         1 <0>         0.0696
     22 H2         -1.1321    1.7258   -0.7961 H         1 <0>         0.0598
     23 H3         -0.9539    1.7326    0.9749 H         1 <0>         0.0761
     24 H4         -0.3963   -0.1731   -2.0967 H         1 <0>         0.1176
     25 H5          0.4442   -3.8258   -0.0246 H         1 <0>         0.1173
     26 H6          0.4388   -2.6268    2.1069 H         1 <0>         0.1240
     27 H7         -0.1606    1.0770    2.5041 H         1 <0>         0.1262
     28 H8          0.4439   -1.7162    3.6252 H         1 <0>         0.0964
     29 H9         -0.2181   -2.7357   -4.4901 H         1 <0>         0.0784
     30 H10        -0.9555   -1.3625   -3.6274 H         1 <0>         0.0622
     31 H11         1.0063   -0.4971   -4.7047 H         1 <0>         0.0661
     32 H12         1.4226   -0.6686   -2.9815 H         1 <0>         0.0777
     33 H13         1.9672   -2.9066   -4.9683 H         1 <0>         0.0658
     34 H14         3.1297   -1.5796   -4.7309 H         1 <0>         0.0554
     35 H15         3.9245   -2.6736   -2.9333 H         1 <0>         0.0517
     36 H16         2.3593   -2.4044   -2.1366 H         1 <0>         0.0746
     37 H17         3.2672   -4.8288   -3.7367 H         1 <0>         0.0555
     38 H18         2.6890   -4.7696   -2.0553 H         1 <0>         0.0610
     39 H19         0.9437   -3.9852   -4.4208 H         1 <0>         0.0801
     40 H20         1.0117   -5.6464   -3.7845 H         1 <0>         0.0670
     41 H21         0.5348   -4.5573   -1.4656 H         1 <0>         0.0818
     42 H22        -0.8149   -4.6586   -2.6256 H         1 <0>         0.0510
@<TRIPOS>BOND
     1    1    2 1
     2    1   21 1
     3    1   22 1
     4    1   23 1
     5    2    7 ar
     6    2    3 ar
     7    3    4 ar
     8    3   24 1
     9    4    5 ar
    10    4   13 1
    11    5    6 ar
    12    5   25 1
    13    6    7 ar
    14    6   26 1
    15    7    8 1
    16    8    9 2
    17    8   27 1
    18    9   10 1
    19    9   28 1
    20   10   11 2
    21   10   12 1
    22   13   20 1
    23   13   14 1
    24   14   15 1
    25   14   29 1
    26   14   30 1
    27   15   16 1
    28   15   31 1
    29   15   32 1
    30   16   17 1
    31   16   33 1
    32   16   34 1
    33   17   18 1
    34   17   35 1
    35   17   36 1
    36   18   19 1
    37   18   37 1
    38   18   38 1
    39   19   20 1
    40   19   39 1
    41   19   40 1
    42   20   41 1
    43   20   42 1
@<TRIPOS>MOLECULE
ZINC18054290
   32    34     0     0     0
SMALL
USER_CHARGES

@<TRIPOS>ATOM
      1 C1          0.2370    1.3668    1.8757 C.ar      1 <0>        -0.0940
      2 C2          1.0093    2.1554    1.0412 C.ar      1 <0>        -0.1115
      3 C3          1.8419    1.5724    0.1024 C.ar      1 <0>        -0.0933
      4 C4          1.9073    0.1979   -0.0076 C.ar      1 <0>        -0.0265
      5 C5          1.1299   -0.6043    0.8322 C.ar      1 <0>         0.0970
      6 C6          0.2920   -0.0080    1.7772 C.ar      1 <0>        -0.1513
      7 N1          1.1890   -1.9678    0.7288 N.2       1 <0>        -0.4465
      8 C7          0.0809   -2.6693    0.6501 C.2       1 <0>         0.3625
      9 N2         -1.2175   -2.2141    0.5712 N.am      1 <0>        -0.6870
     10 C8         -2.2268   -3.0652    0.4973 C.2       1 <0>         0.5563
     11 C9         -1.8915   -4.5029    0.5034 C.2       1 <0>        -0.2296
     12 C10        -2.7150   -5.5791    0.4390 C.2       1 <0>         0.0717
     13 C11        -2.1722   -6.9318    0.6251 C.ar      1 <0>        -0.1053
     14 C12        -0.9055   -7.1089    1.1940 C.ar      1 <0>        -0.0639
     15 C13        -0.4027   -8.3802    1.3655 C.ar      1 <0>        -0.1489
     16 C14        -1.1481   -9.4827    0.9757 C.ar      1 <0>         0.1259
     17 C15        -2.4036   -9.3146    0.4111 C.ar      1 <0>        -0.1551
     18 C16        -2.9217   -8.0494    0.2397 C.ar      1 <0>        -0.0490
     19 F1         -0.6488  -10.7264    1.1464 F         1 <0>        -0.1306
     20 S1         -0.1087   -4.4442    0.6114 S.3       1 <0>         0.1016
     21 O1         -3.3794   -2.6808    0.4278 O.2       1 <0>        -0.4844
     22 Cl1         2.9520   -0.5321   -1.1863 Cl        1 <0>        -0.0470
     23 H1         -0.4072    1.8288    2.6092 H         1 <0>         0.1355
     24 H2          0.9617    3.2313    1.1228 H         1 <0>         0.1381
     25 H3          2.4416    2.1940   -0.5459 H         1 <0>         0.1418
     26 H4         -0.3112   -0.6219    2.4296 H         1 <0>         0.1304
     27 H5         -3.7696   -5.4417    0.2509 H         1 <0>         0.1657
     28 H6         -0.3236   -6.2512    1.4973 H         1 <0>         0.1417
     29 H7          0.5745   -8.5184    1.8043 H         1 <0>         0.1465
     30 H8         -2.9785  -10.1776    0.1091 H         1 <0>         0.1457
     31 H9         -3.9015   -7.9200   -0.1957 H         1 <0>         0.1460
     32 H10        -1.3926   -1.2601    0.5702 H         1 <0>         0.4175
@<TRIPOS>BOND
     1    1    6 ar
     2    1    2 ar
     3    1   23 1
     4    2    3 ar
     5    2   24 1
     6    3    4 ar
     7    3   25 1
     8    4    5 ar
     9    4   22 1
    10    5    6 ar
    11    5    7 1
    12    6   26 1
    13    7    8 2
    14    8   20 1
    15    8    9 1
    16    9   10 am
    17    9   32 1
    18   10   11 1
    19   10   21 2
    20   11   12 2
    21   11   20 1
    22   12   13 1
    23   12   27 1
    24   13   18 ar
    25   13   14 ar
    26   14   15 ar
    27   14   28 1
    28   15   16 ar
    29   15   29 1
    30   16   17 ar
    31   16   19 1
    32   17   18 ar
    33   17   30 1
    34   18   31 1
@<TRIPOS>MOLECULE
ZINC11831248
   42    43     0     0     0
SMALL
USER_CHARGES
(Z)-3-[3-bromo-4-[2-(2,5-dimethylphenoxy)ethoxy]phenyl]prop-2-enoic acid
@<TRIPOS>ATOM
      1 C1         -1.4540   14.4273    0.8671 C.3       1 <0>        -0.1153
      2 C2         -1.2566   13.4692   -0.2793 C.ar      1 <0>        -0.0543
      3 C3         -0.8103   13.9371   -1.5017 C.ar      1 <0>        -0.1589
      4 C4         -0.6286   13.0608   -2.5553 C.ar      1 <0>        -0.0810
      5 C5         -0.8863   11.7138   -2.3875 C.ar      1 <0>        -0.1215
      6 C6         -1.3390   11.2428   -1.1638 C.ar      1 <0>         0.1375
      7 C7         -1.5210   12.1244   -0.1080 C.ar      1 <0>        -0.2084
      8 O1         -1.5986    9.9191   -0.9979 O.3       1 <0>        -0.3001
      9 C8         -2.0562    9.5044    0.2908 C.3       1 <0>         0.0636
     10 C9         -2.2934    7.9929    0.2857 C.3       1 <0>         0.0601
     11 O2         -1.0500    7.3163    0.0902 O.3       1 <0>        -0.2987
     12 C10        -1.0847    5.9596    0.0601 C.ar      1 <0>         0.1525
     13 C11        -2.2952    5.2940    0.2161 C.ar      1 <0>        -0.2206
     14 C12        -2.3362    3.9184    0.1859 C.ar      1 <0>         0.0390
     15 C13        -1.1560    3.1890   -0.0023 C.ar      1 <0>        -0.0559
     16 C14         0.0613    3.8633   -0.1537 C.ar      1 <0>        -0.0537
     17 C15         0.0908    5.2402   -0.1272 C.ar      1 <0>        -0.1363
     18 Br1         1.7332    6.1535   -0.3380 Br        1 <0>        -0.0626
     19 C16        -1.1943    1.7203   -0.0348 C.2       1 <0>        -0.1063
     20 C17        -1.9320    1.0436    0.8723 C.2       1 <0>        -0.1615
     21 C18        -2.4664    1.7200    1.9980 C.2       1 <0>         0.4654
     22 O3         -2.1596    2.8770    2.2145 O.co2     1 <0>        -0.6192
     23 C19        -0.6816   10.7581   -3.5345 C.3       1 <0>        -0.1062
     24 H1         -0.5295   14.5047    1.4392 H         1 <0>         0.0715
     25 H2         -1.7237   15.4090    0.4778 H         1 <0>         0.0668
     26 H3         -2.2517   14.0610    1.5134 H         1 <0>         0.0656
     27 H4         -0.6037   14.9889   -1.6335 H         1 <0>         0.1208
     28 H5         -0.2803   13.4287   -3.5091 H         1 <0>         0.1268
     29 H6         -1.8689   11.7593    0.8471 H         1 <0>         0.1271
     30 H7         -2.9881   10.0176    0.5280 H         1 <0>         0.0826
     31 H8         -1.3044    9.7516    1.0403 H         1 <0>         0.0748
     32 H9         -2.9781    7.7353   -0.5224 H         1 <0>         0.0745
     33 H10        -2.7261    7.6898    1.2391 H         1 <0>         0.0877
     34 H11        -3.2051    5.8572    0.3616 H         1 <0>         0.1264
     35 H12        -3.2772    3.4026    0.3076 H         1 <0>         0.1228
     36 H13         0.9750    3.3052   -0.2950 H         1 <0>         0.1294
     37 H14        -0.6327    1.1819   -0.7839 H         1 <0>         0.1166
     38 H15        -2.1109   -0.0135    0.7424 H         1 <0>         0.1102
     39 H16        -1.6031   10.6804   -4.1115 H         1 <0>         0.0658
     40 H17         0.1188   11.1267   -4.1761 H         1 <0>         0.0625
     41 H18        -0.4125    9.7761   -3.1457 H         1 <0>         0.0741
     42 O4         -3.3154    1.0803    2.8290 O.co2     1 <0>        -0.7636
@<TRIPOS>BOND
     1    1    2 1
     2    1   24 1
     3    1   25 1
     4    1   26 1
     5    2    7 ar
     6    2    3 ar
     7    3    4 ar
     8    3   27 1
     9    4    5 ar
    10    4   28 1
    11    5    6 ar
    12    5   23 1
    13    6    7 ar
    14    6    8 1
    15    7   29 1
    16    8    9 1
    17    9   10 1
    18    9   30 1
    19    9   31 1
    20   10   11 1
    21   10   32 1
    22   10   33 1
    23   11   12 1
    24   12   17 ar
    25   12   13 ar
    26   13   14 ar
    27   13   34 1
    28   14   15 ar
    29   14   35 1
    30   15   16 ar
    31   15   19 1
    32   16   17 ar
    33   16   36 1
    34   17   18 1
    35   19   20 2
    36   19   37 1
    37   20   21 1
    38   20   38 1
    39   21   22 2
    40   21   42 1
    41   23   39 1
    42   23   40 1
    43   23   41 1
@<TRIPOS>MOLECULE
ZINC25578420
   44    46     0     0     0
SMALL
USER_CHARGES
2-(4-chlorophenyl)-N-[5-(1-ethylpropyl)-1,3,4-thiadiazol-2-yl]-4-methyl-thiazole-5-carboxamide
@<TRIPOS>ATOM
      1 C1          2.0006    3.4243   -2.2501 C.3       1 <0>        -0.1511
      2 C2          0.9985    3.8620   -1.1799 C.3       1 <0>        -0.1125
      3 C3          1.5066    3.4363    0.1991 C.3       1 <0>         0.0329
      4 C4          0.5656    3.9757    1.2781 C.3       1 <0>        -0.1134
      5 C5          0.6274    5.5043    1.2911 C.3       1 <0>        -0.1520
      6 C6          1.5496    1.9319    0.2762 C.2       1 <0>        -0.0200
      7 N1          0.5796    1.0490    0.1457 N.2       1 <0>        -0.2432
      8 N2          0.7839   -0.1921    0.2392 N.2       1 <0>        -0.3783
      9 C7          1.9916   -0.6862    0.4753 C.2       1 <0>         0.3756
     10 S1          2.9329    0.8340    0.5712 S.3       1 <0>        -0.1556
     11 N3          2.4074   -2.0053    0.6090 N.2       1 <0>        -0.6486
     12 C8          1.5139   -3.0081    0.4974 C.2       1 <0>         0.5438
     13 O1          0.3428   -2.7584    0.2793 O.3       1 <0>        -0.5450
     14 C9          1.9524   -4.3990    0.6384 C.2       1 <0>        -0.1646
     15 C10         1.2152   -5.5743    0.5622 C.2       1 <0>         0.0916
     16 N4          1.8504   -6.7027    0.7259 N.2       1 <0>        -0.4960
     17 C11         3.1556   -6.7380    0.9578 C.2       1 <0>         0.0620
     18 S2          3.5855   -5.0556    0.9485 S.3       1 <0>         0.1442
     19 C12         4.0264   -7.9136    1.1648 C.ar      1 <0>         0.0097
     20 C13         3.4857   -9.2004    1.1337 C.ar      1 <0>        -0.0660
     21 C14         4.3046  -10.2941    1.3219 C.ar      1 <0>        -0.1100
     22 C15         5.6586  -10.1173    1.5527 C.ar      1 <0>        -0.0288
     23 C16         6.1998   -8.8430    1.5903 C.ar      1 <0>        -0.1061
     24 C17         5.3921   -7.7418    1.3979 C.ar      1 <0>        -0.0875
     25 Cl1         6.6816  -11.4985    1.7964 Cl        1 <0>        -0.0710
     26 C18        -0.2685   -5.5471    0.2997 C.3       1 <0>        -0.0703
     27 H1          1.6353    3.7304   -3.2415 H         1 <0>         0.0499
     28 H2          2.1124    2.3304   -2.2222 H         1 <0>         0.0556
     29 H3          2.9744    3.8975   -2.0560 H         1 <0>         0.0509
     30 H4          0.8867    4.9559   -1.2078 H         1 <0>         0.0679
     31 H5          0.0246    3.3888   -1.3740 H         1 <0>         0.0710
     32 H6          2.5226    3.8260    0.3602 H         1 <0>         0.0814
     33 H7         -0.4634    3.6522    1.0623 H         1 <0>         0.0713
     34 H8          0.8735    3.5880    2.2604 H         1 <0>         0.0621
     35 H9         -0.0492    5.8920    2.0669 H         1 <0>         0.0527
     36 H10         0.3195    5.8921    0.3088 H         1 <0>         0.0575
     37 H11         1.6564    5.8278    1.5069 H         1 <0>         0.0526
     38 H12         2.4291   -9.3393    0.9582 H         1 <0>         0.1447
     39 H13         3.8882  -11.2902    1.2940 H         1 <0>         0.1386
     40 H14         7.2564   -8.7114    1.7711 H         1 <0>         0.1401
     41 H15         5.8152   -6.7486    1.4278 H         1 <0>         0.1385
     42 H16        -0.6560   -6.5764    0.2784 H         1 <0>         0.0654
     43 H17        -0.4606   -5.0628   -0.6691 H         1 <0>         0.0800
     44 H18        -0.7718   -4.9822    1.0982 H         1 <0>         0.0800
@<TRIPOS>BOND
     1    1    2 1
     2    1   27 1
     3    1   28 1
     4    1   29 1
     5    2    3 1
     6    2   30 1
     7    2   31 1
     8    3    4 1
     9    3    6 1
    10    3   32 1
    11    4    5 1
    12    4   33 1
    13    4   34 1
    14    5   35 1
    15    5   36 1
    16    5   37 1
    17    6   10 1
    18    6    7 2
    19    7    8 1
    20    8    9 2
    21    9   10 1
    22    9   11 1
    23   11   12 2
    24   12   13 1
    25   12   14 1
    26   14   18 1
    27   14   15 2
    28   15   16 1
    29   15   26 1
    30   16   17 2
    31   17   18 1
    32   17   19 1
    33   19   24 ar
    34   19   20 ar
    35   20   21 ar
    36   20   38 1
    37   21   22 ar
    38   21   39 1
    39   22   23 ar
    40   22   25 1
    41   23   24 ar
    42   23   40 1
    43   24   41 1
    44   26   42 1
    45   26   43 1
    46   26   44 1
@<TRIPOS>MOLECULE
ZINC09380433
   50    53     0     0     0
SMALL
USER_CHARGES

@<TRIPOS>ATOM
      1 C1         -0.0167    1.3800    0.0096 C.ar      1 <0>        -0.1250
      2 C2          1.1681    2.0958    0.0022 C.ar      1 <0>        -0.1216
      3 C3          2.3775    1.4341   -0.0129 C.ar      1 <0>        -0.1075
      4 C4          2.4051    0.0353   -0.0206 C.ar      1 <0>        -0.0498
      5 C5          1.2031   -0.6808   -0.0130 C.ar      1 <0>        -0.1116
      6 C6          0.0021   -0.0041    0.0020 C.ar      1 <0>        -0.1200
      7 C7          3.6910   -0.6788   -0.0372 C.2       1 <0>        -0.0816
      8 C8          3.7136   -2.0292   -0.0446 C.2       1 <0>        -0.1827
      9 C9          4.9932   -2.7398   -0.0611 C.2       1 <0>         0.4452
     10 C10         5.0177   -4.2072   -0.0691 C.2       1 <0>        -0.4733
     11 C11         3.8202   -5.1286   -0.0682 C.3       1 <0>         0.2458
     12 H1          3.2233   -4.9667    0.8293 H         1 <0>         0.0825
     13 N1          4.3563   -6.4949   -0.0783 N.am      1 <0>        -0.5499
     14 C12         5.6991   -6.4119   -0.0844 C.2       1 <0>         0.5076
     15 O1          6.4563   -7.3624   -0.0936 O.2       1 <0>        -0.5023
     16 C13         6.1171   -4.9961   -0.0847 C.2       1 <0>         0.2802
     17 O2          7.3974   -4.5567   -0.0961 O.3       1 <0>        -0.5975
     18 C14         3.6049   -7.6733   -0.0802 C.ar      1 <0>         0.1948
     19 C15         2.2168   -7.6140   -0.0782 C.ar      1 <0>        -0.1278
     20 C16         1.4776   -8.7802   -0.0806 C.ar      1 <0>        -0.0904
     21 C17         2.1174  -10.0065   -0.0852 C.ar      1 <0>        -0.1130
     22 C18         3.4987  -10.0691   -0.0868 C.ar      1 <0>        -0.1545
     23 C19         4.2442   -8.9064   -0.0901 C.ar      1 <0>        -0.1165
     24 C20         4.1914  -11.4074   -0.0907 C.3       1 <0>         0.5103
     25 F1          3.2344  -12.4279   -0.0922 F         1 <0>        -0.1800
     26 F2          4.9902  -11.5157   -1.2341 F         1 <0>        -0.1754
     27 F3          4.9927  -11.5212    1.0504 F         1 <0>        -0.1753
     28 C21         2.9820   -4.8903   -1.2977 C.ar      1 <0>        -0.0704
     29 C22         3.3683   -5.4259   -2.5121 C.ar      1 <0>        -0.0952
     30 C23         2.5993   -5.2073   -3.6399 C.ar      1 <0>        -0.1148
     31 C24         1.4438   -4.4534   -3.5531 C.ar      1 <0>        -0.1262
     32 C25         1.0571   -3.9186   -2.3385 C.ar      1 <0>        -0.1162
     33 C26         1.8237   -4.1408   -1.2099 C.ar      1 <0>        -0.1218
     34 O3          6.0381   -2.1130   -0.0681 O.2       1 <0>        -0.4893
     35 H2         -0.9608    1.9042    0.0260 H         1 <0>         0.1185
     36 H3          1.1450    3.1755    0.0078 H         1 <0>         0.1207
     37 H4          3.3010    1.9939   -0.0191 H         1 <0>         0.1249
     38 H5          1.2161   -1.7607   -0.0192 H         1 <0>         0.1257
     39 H6         -0.9266   -0.5553    0.0082 H         1 <0>         0.1214
     40 H7          4.6171   -0.1232   -0.0434 H         1 <0>         0.1298
     41 H8          2.7874   -2.5848   -0.0384 H         1 <0>         0.1260
     42 H9          1.7166   -6.6569   -0.0743 H         1 <0>         0.1360
     43 H10         0.3985   -8.7349   -0.0786 H         1 <0>         0.1352
     44 H11         1.5368  -10.9171   -0.0871 H         1 <0>         0.1345
     45 H12         5.3231   -8.9560   -0.0959 H         1 <0>         0.1621
     46 H13         4.2710   -6.0148   -2.5799 H         1 <0>         0.1139
     47 H14         2.9015   -5.6251   -4.5888 H         1 <0>         0.1176
     48 H15         0.8435   -4.2821   -4.4343 H         1 <0>         0.1166
     49 H16         0.1545   -3.3294   -2.2708 H         1 <0>         0.1191
     50 H17         1.5196   -3.7261   -0.2602 H         1 <0>         0.1213
@<TRIPOS>BOND
     1    1    6 ar
     2    1    2 ar
     3    1   35 1
     4    2    3 ar
     5    2   36 1
     6    3    4 ar
     7    3   37 1
     8    4    5 ar
     9    4    7 1
    10    5    6 ar
    11    5   38 1
    12    6   39 1
    13    7    8 2
    14    7   40 1
    15    8    9 1
    16    8   41 1
    17    9   10 1
    18    9   34 2
    19   10   16 2
    20   10   11 1
    21   11   12 1
    22   11   13 1
    23   11   28 1
    24   13   14 am
    25   13   18 1
    26   14   15 2
    27   14   16 1
    28   16   17 1
    29   18   23 ar
    30   18   19 ar
    31   19   20 ar
    32   19   42 1
    33   20   21 ar
    34   20   43 1
    35   21   22 ar
    36   21   44 1
    37   22   23 ar
    38   22   24 1
    39   23   45 1
    40   24   25 1
    41   24   26 1
    42   24   27 1
    43   28   33 ar
    44   28   29 ar
    45   29   30 ar
    46   29   46 1
    47   30   31 ar
    48   30   47 1
    49   31   32 ar
    50   31   48 1
    51   32   33 ar
    52   32   49 1
    53   33   50 1
@<TRIPOS>MOLECULE
ZINC40027436
   57    59     0     0     0
SMALL
USER_CHARGES

@<TRIPOS>ATOM
      1 C1          0.0760    1.4409   -0.1915 C.3       1 <0>        -0.1445
      2 C2          0.0725   -0.0859   -0.0932 C.3       1 <0>        -0.0817
      3 C3         -1.3495   -0.5837   -0.0584 C.ar      1 <0>        -0.0923
      4 C4         -2.0012   -0.7298    1.1519 C.ar      1 <0>        -0.1217
      5 C5         -3.3055   -1.1865    1.1839 C.ar      1 <0>        -0.1126
      6 C6         -3.9583   -1.4966    0.0055 C.ar      1 <0>        -0.0737
      7 C7         -3.3069   -1.3497   -1.2049 C.ar      1 <0>        -0.0794
      8 C8         -2.0040   -0.8890   -1.2371 C.ar      1 <0>        -0.1223
      9 C9         -5.3799   -1.9954    0.0404 C.3       1 <0>         0.2621
     10 H1         -5.7935   -1.8779    1.0421 H         1 <0>         0.0685
     11 C10        -5.4316   -3.4469   -0.3759 C.2       1 <0>        -0.5004
     12 C11        -6.2084   -3.5084   -1.4823 C.2       1 <0>         0.2619
     13 C12        -6.6788   -2.1491   -1.8216 C.2       1 <0>         0.5115
     14 O1         -7.3958   -1.8741   -2.7632 O.2       1 <0>        -0.5347
     15 N1         -6.1967   -1.2601   -0.9322 N.am      1 <0>        -0.6102
     16 C13        -6.4429    0.1841   -0.9346 C.3       1 <0>         0.1636
     17 C14        -5.3806    0.8734   -1.7516 C.2       1 <0>        -0.1699
     18 C15        -5.7231    1.6572   -2.7438 C.2       1 <0>        -0.1834
     19 O2         -6.5066   -4.6354   -2.1691 O.3       1 <0>        -0.6554
     20 C16        -4.7680   -4.5720    0.2905 C.2       1 <0>         0.5077
     21 O3         -3.8784   -5.1772   -0.2782 O.2       1 <0>        -0.4768
     22 C17        -5.1790   -4.9705    1.6510 C.ar      1 <0>        -0.1681
     23 C18        -6.2799   -4.3583    2.2585 C.ar      1 <0>        -0.0280
     24 C19        -6.6598   -4.7328    3.5273 C.ar      1 <0>        -0.2220
     25 C20        -5.9505   -5.7185    4.2051 C.ar      1 <0>         0.1398
     26 C21        -4.8552   -6.3294    3.6051 C.ar      1 <0>        -0.1343
     27 C22        -4.4723   -5.9650    2.3337 C.ar      1 <0>        -0.0363
     28 C23        -4.0899   -7.3962    4.3447 C.3       1 <0>        -0.0998
     29 O4         -6.3284   -6.0848    5.4559 O.3       1 <0>        -0.3089
     30 C24        -7.4620   -5.4166    6.0130 C.3       1 <0>         0.0843
     31 C25        -7.7302   -5.9507    7.3964 C.2       1 <0>        -0.1522
     32 C26        -7.9884   -5.1238    8.3791 C.2       1 <0>        -0.1753
     33 H2          1.1045    1.8010   -0.2167 H         1 <0>         0.0528
     34 H3         -0.4387    1.7476   -1.1021 H         1 <0>         0.0543
     35 H4         -0.4352    1.8619    0.6742 H         1 <0>         0.0541
     36 H5          0.5837   -0.5069   -0.9590 H         1 <0>         0.0677
     37 H6          0.5872   -0.3926    0.8173 H         1 <0>         0.0673
     38 H7         -1.4912   -0.4875    2.0725 H         1 <0>         0.1143
     39 H8         -3.8144   -1.3012    2.1295 H         1 <0>         0.1172
     40 H9         -3.8168   -1.5924   -2.1255 H         1 <0>         0.1161
     41 H10        -1.4963   -0.7707   -2.1830 H         1 <0>         0.1144
     42 H11        -7.4224    0.3850   -1.3685 H         1 <0>         0.0810
     43 H12        -6.4148    0.5591    0.0884 H         1 <0>         0.0813
     44 H13        -4.3370    0.7211   -1.5192 H         1 <0>         0.1153
     45 H14        -4.9618    2.1512   -3.3293 H         1 <0>         0.0945
     46 H15        -6.7667    1.8094   -2.9763 H         1 <0>         0.0953
     47 H16        -6.8310   -3.5925    1.7329 H         1 <0>         0.1364
     48 H17        -7.5096   -4.2603    3.9973 H         1 <0>         0.1269
     49 H18        -3.6243   -6.4434    1.8664 H         1 <0>         0.1355
     50 H19        -4.5235   -8.3720    4.1262 H         1 <0>         0.0646
     51 H20        -3.0475   -7.3823    4.0264 H         1 <0>         0.0635
     52 H21        -4.1450   -7.2058    5.4166 H         1 <0>         0.0663
     53 H22        -7.2617   -4.3466    6.0691 H         1 <0>         0.0678
     54 H23        -8.3330   -5.5905    5.3812 H         1 <0>         0.0732
     55 H24        -7.7095   -7.0151    7.5777 H         1 <0>         0.1189
     56 H25        -8.1806   -5.5065    9.3706 H         1 <0>         0.1063
     57 H26        -8.0091   -4.0593    8.1978 H         1 <0>         0.0995
@<TRIPOS>BOND
     1    1    2 1
     2    1   33 1
     3    1   34 1
     4    1   35 1
     5    2    3 1
     6    2   36 1
     7    2   37 1
     8    3    8 ar
     9    3    4 ar
    10    4    5 ar
    11    4   38 1
    12    5    6 ar
    13    5   39 1
    14    6    7 ar
    15    6    9 1
    16    7    8 ar
    17    7   40 1
    18    8   41 1
    19    9   10 1
    20    9   15 1
    21    9   11 1
    22   11   12 2
    23   11   20 1
    24   12   13 1
    25   12   19 1
    26   13   14 2
    27   13   15 am
    28   15   16 1
    29   16   17 1
    30   16   42 1
    31   16   43 1
    32   17   18 2
    33   17   44 1
    34   18   45 1
    35   18   46 1
    36   20   21 2
    37   20   22 1
    38   22   27 ar
    39   22   23 ar
    40   23   24 ar
    41   23   47 1
    42   24   25 ar
    43   24   48 1
    44   25   26 ar
    45   25   29 1
    46   26   27 ar
    47   26   28 1
    48   27   49 1
    49   28   50 1
    50   28   51 1
    51   28   52 1
    52   29   30 1
    53   30   31 1
    54   30   53 1
    55   30   54 1
    56   31   32 2
    57   31   55 1
    58   32   56 1
    59   32   57 1
@<TRIPOS>MOLECULE
ZINC40942115
   43    44     0     0     0
SMALL
USER_CHARGES

@<TRIPOS>ATOM
      1 C1         -0.7170   -0.1553    1.2036 C.3       1 <0>        -0.1535
      2 C2         -0.2146   -1.5960    1.0900 C.3       1 <0>        -0.1232
      3 C3          0.3257   -1.8379   -0.3209 C.3       1 <0>        -0.1174
      4 C4          0.8281   -3.2786   -0.4345 C.3       1 <0>        -0.1151
      5 C5          1.3683   -3.5205   -1.8454 C.3       1 <0>         0.0650
      6 O1          1.8376   -4.8661   -1.9515 O.3       1 <0>        -0.3129
      7 C6          2.3528   -5.2468   -3.1493 C.ar      1 <0>         0.0986
      8 C7          1.5168   -5.7912   -4.1242 C.ar      1 <0>         0.1172
      9 C8          2.0369   -6.1791   -5.3424 C.ar      1 <0>        -0.1622
     10 C9          3.4067   -6.0246   -5.5967 C.ar      1 <0>        -0.0272
     11 C10         4.2398   -5.4771   -4.6124 C.ar      1 <0>        -0.0995
     12 C11         3.7099   -5.0876   -3.4013 C.ar      1 <0>        -0.0712
     13 Br1         4.8340   -4.3415   -2.0763 Br        1 <0>        -0.0220
     14 C12         3.9658   -6.4352   -6.8886 C.2       1 <0>         0.0107
     15 C13         5.2548   -6.1255   -7.2022 C.2       1 <0>        -0.1574
     16 C14         6.0515   -6.5484   -8.3100 C.2       1 <0>         0.4833
     17 O2          5.5476   -7.3824   -9.2476 O.3       1 <0>        -0.5756
     18 N1          7.2681   -6.1130   -8.3942 N.2       1 <0>        -0.6205
     19 C15         7.7878   -5.2834   -7.4734 C.2       1 <0>         0.3699
     20 S1          9.3564   -4.6011   -7.4024 S.2       1 <0>        -0.5170
     21 S2          6.4175   -5.0703   -6.3455 S.3       1 <0>        -0.1412
     22 O3          0.1884   -5.9401   -3.8741 O.3       1 <0>        -0.3011
     23 C16        -0.6089   -6.5043   -4.9172 C.3       1 <0>         0.0481
     24 C17        -2.0648   -6.5928   -4.4552 C.3       1 <0>        -0.1500
     25 H1          0.1051    0.5327    1.0064 H         1 <0>         0.0541
     26 H2         -1.5120    0.0106    0.4767 H         1 <0>         0.0533
     27 H3         -1.1018    0.0170    2.2088 H         1 <0>         0.0531
     28 H4          0.5805   -1.7620    1.8169 H         1 <0>         0.0628
     29 H5         -1.0366   -2.2841    1.2872 H         1 <0>         0.0619
     30 H6         -0.4694   -1.6720   -1.0478 H         1 <0>         0.0634
     31 H7          1.1477   -1.1499   -0.5181 H         1 <0>         0.0649
     32 H8          1.6232   -3.4446    0.2924 H         1 <0>         0.0732
     33 H9          0.0061   -3.9667   -0.2373 H         1 <0>         0.0718
     34 H10         0.5733   -3.3546   -2.5723 H         1 <0>         0.0535
     35 H11         2.1904   -2.8325   -2.0426 H         1 <0>         0.0554
     36 H12         1.3903   -6.6010   -6.0976 H         1 <0>         0.1452
     37 H13         5.2957   -5.3563   -4.8042 H         1 <0>         0.1623
     38 H14         3.3558   -6.9830   -7.5915 H         1 <0>         0.1583
     39 H15        -0.5467   -5.8733   -5.8038 H         1 <0>         0.0644
     40 H16        -0.2419   -7.5027   -5.1554 H         1 <0>         0.0657
     41 H17        -2.6729   -7.0232   -5.2509 H         1 <0>         0.0788
     42 H18        -2.1269   -7.2239   -3.5686 H         1 <0>         0.0668
     43 H19        -2.4317   -5.5945   -4.2170 H         1 <0>         0.0654
@<TRIPOS>BOND
     1    1    2 1
     2    1   25 1
     3    1   26 1
     4    1   27 1
     5    2    3 1
     6    2   28 1
     7    2   29 1
     8    3    4 1
     9    3   30 1
    10    3   31 1
    11    4    5 1
    12    4   32 1
    13    4   33 1
    14    5    6 1
    15    5   34 1
    16    5   35 1
    17    6    7 1
    18    7   12 ar
    19    7    8 ar
    20    8    9 ar
    21    8   22 1
    22    9   10 ar
    23    9   36 1
    24   10   11 ar
    25   10   14 1
    26   11   12 ar
    27   11   37 1
    28   12   13 1
    29   14   15 2
    30   14   38 1
    31   15   21 1
    32   15   16 1
    33   16   17 1
    34   16   18 2
    35   18   19 1
    36   19   20 2
    37   19   21 1
    38   22   23 1
    39   23   24 1
    40   23   39 1
    41   23   40 1
    42   24   41 1
    43   24   42 1
    44   24   43 1
@<TRIPOS>MOLECULE
ZINC13037255
   44    46     0     0     0
SMALL
USER_CHARGES
4-[5-chloro-6-oxo-4-[[(1S)-1-[3-(trifluoromethyl)phenyl]ethyl]amino]pyridazin-1-yl]benzoic acid
@<TRIPOS>ATOM
      1 C1         -1.2565    5.9988    1.6141 C.3       1 <0>        -0.1697
      2 C2         -0.4302    5.5447    0.4092 C.3       1 <0>         0.1783
      3 H1          0.5212    6.0765    0.3999 H         1 <0>         0.1022
      4 C3         -0.1763    4.0623    0.5041 C.ar      1 <0>        -0.0944
      5 C4         -1.1586    3.1669    0.1237 C.ar      1 <0>        -0.0798
      6 C5         -0.9236    1.8073    0.2054 C.ar      1 <0>        -0.1122
      7 C6          0.2900    1.3427    0.6776 C.ar      1 <0>        -0.0684
      8 C7          1.2720    2.2378    1.0579 C.ar      1 <0>        -0.1776
      9 C8          1.0388    3.5978    0.9712 C.ar      1 <0>        -0.0547
     10 C9          2.5971    1.7314    1.5666 C.3       1 <0>         0.5085
     11 F1          2.5945    0.3325    1.5620 F         1 <0>        -0.1765
     12 F2          3.6237    2.1986    0.7390 F         1 <0>        -0.1740
     13 F3          2.8030    2.1931    2.8711 F         1 <0>        -0.1750
     14 N1         -1.1647    5.8363   -0.8245 N.pl3     1 <0>        -0.7055
     15 C10        -1.0748    7.0910   -1.4037 C.2       1 <0>         0.2506
     16 C11        -0.2776    8.0937   -0.8109 C.2       1 <0>         0.0453
     17 N2         -0.1916    9.2756   -1.3546 N.2       1 <0>        -0.1687
     18 N3         -0.8823    9.5793   -2.5323 N.am      1 <0>        -0.3572
     19 C12        -1.6546    8.6523   -3.1324 C.2       1 <0>         0.5276
     20 O1         -2.2548    8.9247   -4.1607 O.2       1 <0>        -0.5079
     21 C13        -1.7611    7.3714   -2.5716 C.2       1 <0>        -0.2243
     22 Cl1        -2.7442    6.1573   -3.3287 Cl        1 <0>        -0.0270
     23 C14        -0.7710   10.8539   -3.0907 C.ar      1 <0>         0.1189
     24 C15         0.4839   11.4300   -3.2604 C.ar      1 <0>        -0.1168
     25 C16         0.5977   12.6847   -3.8160 C.ar      1 <0>        -0.0704
     26 C17        -0.5501   13.3843   -4.1991 C.ar      1 <0>        -0.1003
     27 C18        -1.8095   12.8047   -4.0219 C.ar      1 <0>        -0.0763
     28 C19        -1.9156   11.5473   -3.4709 C.ar      1 <0>        -0.1042
     29 C20        -0.4325   14.7316   -4.7888 C.2       1 <0>         0.4886
     30 O2         -1.4311   15.3386   -5.1210 O.co2     1 <0>        -0.6277
     31 H2         -1.4402    7.0710    1.5454 H         1 <0>         0.0723
     32 H3         -2.2080    5.4671    1.6234 H         1 <0>         0.0671
     33 H4         -0.7101    5.7819    2.5319 H         1 <0>         0.0767
     34 H5         -2.1080    3.5298   -0.2416 H         1 <0>         0.1317
     35 H6         -1.6893    1.1079   -0.0960 H         1 <0>         0.1394
     36 H7          0.4722    0.2804    0.7450 H         1 <0>         0.1412
     37 H8          1.8063    4.2973    1.2680 H         1 <0>         0.1397
     38 H9         -1.7138    5.1505   -1.2356 H         1 <0>         0.4099
     39 H10         0.2643    7.8807    0.0987 H         1 <0>         0.1993
     40 H11         1.3701   10.8909   -2.9597 H         1 <0>         0.1234
     41 H12         1.5725   13.1296   -3.9516 H         1 <0>         0.1400
     42 H13        -2.6985   13.3426   -4.3166 H         1 <0>         0.1364
     43 H14        -2.8885   11.0990   -3.3334 H         1 <0>         0.1233
     44 O3          0.7825   15.2889   -4.9590 O.co2     1 <0>        -0.7516
@<TRIPOS>BOND
     1    1    2 1
     2    1   31 1
     3    1   32 1
     4    1   33 1
     5    2    3 1
     6    2    4 1
     7    2   14 1
     8    4    9 ar
     9    4    5 ar
    10    5    6 ar
    11    5   34 1
    12    6    7 ar
    13    6   35 1
    14    7    8 ar
    15    7   36 1
    16    8    9 ar
    17    8   10 1
    18    9   37 1
    19   10   11 1
    20   10   12 1
    21   10   13 1
    22   14   15 1
    23   14   38 1
    24   15   21 2
    25   15   16 1
    26   16   17 2
    27   16   39 1
    28   17   18 1
    29   18   19 am
    30   18   23 1
    31   19   20 2
    32   19   21 1
    33   21   22 1
    34   23   28 ar
    35   23   24 ar
    36   24   25 ar
    37   24   40 1
    38   25   26 ar
    39   25   41 1
    40   26   27 ar
    41   26   29 1
    42   27   28 ar
    43   27   42 1
    44   28   43 1
    45   29   30 2
    46   29   44 1
@<TRIPOS>MOLECULE
ZINC13468237
   54    56     0     0     0
SMALL
USER_CHARGES
(1R,6R)-6-[[3-ethoxycarbonyl-5-methyl-4-(p-tolyl)-2-thienyl]carbamoyl]cyclohex-3-ene-1-carboxylic acid
@<TRIPOS>ATOM
      1 C1          6.1211   -5.2360   -1.0677 C.3       1 <0>        -0.1523
      2 C2          6.3762   -4.2651    0.0869 C.3       1 <0>         0.0591
      3 O1          5.1369   -4.0334    0.8073 O.3       1 <0>        -0.3483
      4 C3          5.1894   -3.1944    1.8624 C.2       1 <0>         0.5443
      5 O2          6.2432   -2.6710    2.1714 O.2       1 <0>        -0.5013
      6 C4          3.9792   -2.9142    2.6349 C.2       1 <0>        -0.2338
      7 C5          3.6071   -3.7174    3.7843 C.2       1 <0>        -0.0343
      8 C6          2.4604   -3.3731    4.4240 C.2       1 <0>        -0.2110
      9 S1          1.8794   -1.9688    3.4962 S.3       1 <0>         0.2657
     10 C7          3.1326   -1.8636    2.3068 C.2       1 <0>         0.1119
     11 N1          3.2579   -0.9520    1.2706 N.am      1 <0>        -0.6295
     12 C8          2.3262    0.0067    1.1002 C.2       1 <0>         0.5235
     13 O3          1.3781    0.0717    1.8536 O.2       1 <0>        -0.4485
     14 C9          2.4625    0.9980   -0.0267 C.3       1 <0>        -0.0760
     15 H1          2.4790    0.4694   -0.9797 H         1 <0>         0.1015
     16 C10         3.7556    1.7978    0.1454 C.3       1 <0>        -0.0824
     17 C11         3.7768    2.9575   -0.8068 C.2       1 <0>        -0.1699
     18 C12         2.7291    3.4189   -1.4111 C.2       1 <0>        -0.1375
     19 C13         1.3463    2.8564   -1.2489 C.3       1 <0>        -0.0727
     20 C14         1.2804    1.9752    0.0004 C.3       1 <0>        -0.1122
     21 H2          1.3410    2.5989    0.8923 H         1 <0>         0.0770
     22 C15        -0.0143    1.2041    0.0087 C.2       1 <0>         0.4780
     23 O4          0.0021   -0.0041    0.0020 O.co2     1 <0>        -0.6290
     24 C16         1.8308   -4.0228    5.6292 C.3       1 <0>        -0.0590
     25 C17         4.4349   -4.8617    4.2341 C.ar      1 <0>        -0.0318
     26 C18         5.7242   -4.6450    4.7185 C.ar      1 <0>        -0.0967
     27 C19         6.4880   -5.7136    5.1417 C.ar      1 <0>        -0.1212
     28 C20         5.9811   -6.9990    5.0749 C.ar      1 <0>        -0.0890
     29 C21         4.7048   -7.2208    4.5895 C.ar      1 <0>        -0.1219
     30 C22         3.9295   -6.1594    4.1692 C.ar      1 <0>        -0.0941
     31 C23         6.8224   -8.1623    5.5332 C.3       1 <0>        -0.1132
     32 H3          5.7486   -6.1809   -0.6722 H         1 <0>         0.0662
     33 H4          5.3816   -4.8088   -1.7450 H         1 <0>         0.0681
     34 H5          7.0514   -5.4099   -1.6084 H         1 <0>         0.0781
     35 H6          6.7486   -3.3201   -0.3085 H         1 <0>         0.0685
     36 H7          7.1157   -4.6922    0.7642 H         1 <0>         0.0678
     37 H8          4.0163   -1.0040    0.6680 H         1 <0>         0.4123
     38 H9          3.8174    2.1691    1.1683 H         1 <0>         0.0760
     39 H10         4.6098    1.1515   -0.0566 H         1 <0>         0.0692
     40 H11         4.7251    3.4367   -1.0003 H         1 <0>         0.1032
     41 H12         2.8565    4.2641   -2.0714 H         1 <0>         0.1021
     42 H13         1.0970    2.2591   -2.1259 H         1 <0>         0.0718
     43 H14         0.6294    3.6719   -1.1541 H         1 <0>         0.0833
     44 H15         0.9120   -3.4963    5.8874 H         1 <0>         0.0721
     45 H16         1.6014   -5.0640    5.4024 H         1 <0>         0.0748
     46 H17         2.5236   -3.9782    6.4695 H         1 <0>         0.0740
     47 H18         6.1226   -3.6423    4.7669 H         1 <0>         0.1241
     48 H19         7.4850   -5.5465    5.5216 H         1 <0>         0.1204
     49 H20         4.3144   -8.2265    4.5396 H         1 <0>         0.1219
     50 H21         2.9330   -6.3337    3.7910 H         1 <0>         0.1247
     51 H22         7.4040   -8.5431    4.6937 H         1 <0>         0.0681
     52 H23         7.4974   -7.8335    6.3235 H         1 <0>         0.0645
     53 H24         6.1743   -8.9516    5.9140 H         1 <0>         0.0651
     54 O5         -1.1857    1.8593    0.0178 O.co2     1 <0>        -0.7717
@<TRIPOS>BOND
     1    1    2 1
     2    1   32 1
     3    1   33 1
     4    1   34 1
     5    2    3 1
     6    2   35 1
     7    2   36 1
     8    3    4 1
     9    4    5 2
    10    4    6 1
    11    6   10 2
    12    6    7 1
    13    7    8 2
    14    7   25 1
    15    8    9 1
    16    8   24 1
    17    9   10 1
    18   10   11 1
    19   11   12 am
    20   11   37 1
    21   12   13 2
    22   12   14 1
    23   14   15 1
    24   14   20 1
    25   14   16 1
    26   16   17 1
    27   16   38 1
    28   16   39 1
    29   17   18 2
    30   17   40 1
    31   18   19 1
    32   18   41 1
    33   19   20 1
    34   19   42 1
    35   19   43 1
    36   20   21 1
    37   20   22 1
    38   22   23 2
    39   22   54 1
    40   24   44 1
    41   24   45 1
    42   24   46 1
    43   25   30 ar
    44   25   26 ar
    45   26   27 ar
    46   26   47 1
    47   27   28 ar
    48   27   48 1
    49   28   29 ar
    50   28   31 1
    51   29   30 ar
    52   29   49 1
    53   30   50 1
    54   31   51 1
    55   31   52 1
    56   31   53 1
@<TRIPOS>MOLECULE
ZINC35698446
   53    56     0     0     0
SMALL
USER_CHARGES

@<TRIPOS>ATOM
      1 C1          0.5177    1.3468   -0.4384 C.3       1 <0>        -0.1500
      2 C2          0.3901   -0.1688   -0.2724 C.3       1 <0>         0.0666
      3 O1          1.0030   -0.5668    0.9556 O.3       1 <0>        -0.3544
      4 C3          0.9770   -1.8842    1.2556 C.2       1 <0>         0.5378
      5 O2          0.4469   -2.6727    0.4923 O.2       1 <0>        -0.5495
      6 C4          1.5591   -2.3433    2.4434 C.2       1 <0>        -0.3899
      7 C5          1.4219   -3.6587    2.8436 C.2       1 <0>         0.3003
      8 N1          1.9774   -4.0787    3.9685 N.2       1 <0>        -0.5965
      9 C6          2.6849   -3.3246    4.7844 C.2       1 <0>         0.3206
     10 N2          2.9379   -1.9984    4.5708 N.pl3     1 <0>        -0.5125
     11 C7          2.3641   -1.4175    3.3278 C.3       1 <0>         0.2600
     12 H1          1.7215   -0.5855    3.6156 H         1 <0>         0.0736
     13 C8          3.4968   -0.8592    2.5055 C.ar      1 <0>        -0.0758
     14 C9          4.5729   -1.6619    2.1760 C.ar      1 <0>        -0.0886
     15 C10         5.6120   -1.1497    1.4217 C.ar      1 <0>        -0.1225
     16 C11         5.5747    0.1651    0.9965 C.ar      1 <0>        -0.0906
     17 C12         4.4982    0.9676    1.3251 C.ar      1 <0>        -0.1244
     18 C13         3.4571    0.4541    2.0758 C.ar      1 <0>        -0.0753
     19 C14         6.7079    0.7237    0.1750 C.3       1 <0>        -0.1088
     20 C15         3.6974   -1.3443    5.5203 C.2       1 <0>         0.2307
     21 C16         4.1292   -2.0617    6.5808 C.2       1 <0>        -0.3034
     22 S1          3.4557   -3.6743    6.2338 S.3       1 <0>         0.1397
     23 C17         4.0252    0.0820    5.3820 C.2       1 <0>        -0.4659
     24 C18         4.6558    0.7280    6.3815 C.2       1 <0>         0.5015
     25 O3          5.0897    0.0400    7.4656 O.3       1 <0>        -0.7013
     26 N3          4.8609    2.0951    6.3015 N.pl3     1 <0>        -0.7242
     27 C19         5.6455    2.7796    7.3320 C.3       1 <0>         0.1213
     28 C20         5.0659    4.0665    7.9228 C.3       1 <0>        -0.2116
     29 C21         6.2605    4.1328    6.9692 C.3       1 <0>        -0.2076
     30 C22         0.6337   -4.6214    1.9932 C.3       1 <0>        -0.1059
     31 H2          1.5720    1.6233   -0.4521 H         1 <0>         0.0646
     32 H3          0.0503    1.6503   -1.3751 H         1 <0>         0.0712
     33 H4          0.0218    1.8465    0.3938 H         1 <0>         0.0629
     34 H5         -0.6641   -0.4453   -0.2587 H         1 <0>         0.0579
     35 H6          0.8860   -0.6685   -1.1046 H         1 <0>         0.0580
     36 H7          4.6021   -2.6891    2.5083 H         1 <0>         0.1042
     37 H8          6.4530   -1.7766    1.1650 H         1 <0>         0.1139
     38 H9          4.4692    1.9949    0.9932 H         1 <0>         0.1152
     39 H10         2.6143    1.0800    2.3294 H         1 <0>         0.1184
     40 H11         6.5012    0.5665   -0.8836 H         1 <0>         0.0641
     41 H12         6.8070    1.7914    0.3712 H         1 <0>         0.0624
     42 H13         7.6351    0.2175    0.4433 H         1 <0>         0.0619
     43 H14         4.7276   -1.7409    7.4207 H         1 <0>         0.2376
     44 H15         3.7602    0.6119    4.4790 H         1 <0>         0.0926
     45 H16         4.4850    2.5995    5.5632 H         1 <0>         0.3863
     46 H17         6.2140    2.1309    7.9985 H         1 <0>         0.1291
     47 H18         4.1008    4.4037    7.5448 H         1 <0>         0.0877
     48 H19         5.2529    4.2645    8.9783 H         1 <0>         0.0910
     49 H20         7.2334    4.3745    7.3972 H         1 <0>         0.0927
     50 H21         6.0813    4.5137    5.9638 H         1 <0>         0.0877
     51 H22         1.2753   -5.0222    1.2084 H         1 <0>         0.0813
     52 H23         0.2662   -5.4381    2.6145 H         1 <0>         0.0641
     53 H24        -0.2104   -4.1002    1.5416 H         1 <0>         0.1016
@<TRIPOS>BOND
     1    1    2 1
     2    1   31 1
     3    1   32 1
     4    1   33 1
     5    2    3 1
     6    2   34 1
     7    2   35 1
     8    3    4 1
     9    4    5 2
    10    4    6 1
    11    6   11 1
    12    6    7 2
    13    7    8 1
    14    7   30 1
    15    8    9 2
    16    9   22 1
    17    9   10 1
    18   10   11 1
    19   10   20 1
    20   11   12 1
    21   11   13 1
    22   13   18 ar
    23   13   14 ar
    24   14   15 ar
    25   14   36 1
    26   15   16 ar
    27   15   37 1
    28   16   17 ar
    29   16   19 1
    30   17   18 ar
    31   17   38 1
    32   18   39 1
    33   19   40 1
    34   19   41 1
    35   19   42 1
    36   20   21 2
    37   20   23 1
    38   21   22 1
    39   21   43 1
    40   23   24 2
    41   23   44 1
    42   24   25 1
    43   24   26 1
    44   26   27 1
    45   26   45 1
    46   27   29 1
    47   27   28 1
    48   27   46 1
    49   28   29 1
    50   28   47 1
    51   28   48 1
    52   29   49 1
    53   29   50 1
    54   30   51 1
    55   30   52 1
    56   30   53 1
@<TRIPOS>MOLECULE
ZINC39887330
   54    56     0     0     0
SMALL
USER_CHARGES

@<TRIPOS>ATOM
      1 C1         -2.7089   -0.3875   -0.7701 C.3       1 <0>        -0.1539
      2 C2         -1.3426   -0.9604   -0.3881 C.3       1 <0>        -0.1236
      3 C3         -0.6265   -1.4538   -1.6469 C.3       1 <0>        -0.1164
      4 C4          0.7398   -2.0267   -1.2649 C.3       1 <0>        -0.0758
      5 C5          1.4452   -2.5127   -2.5048 C.ar      1 <0>        -0.0864
      6 C6          1.2696   -3.8161   -2.9324 C.ar      1 <0>        -0.1141
      7 C7          1.9142   -4.2645   -4.0685 C.ar      1 <0>        -0.0715
      8 C8          2.7396   -3.4048   -4.7818 C.ar      1 <0>         0.1514
      9 C9          2.9138   -2.0963   -4.3497 C.ar      1 <0>        -0.1207
     10 C10         2.2621   -1.6527   -3.2157 C.ar      1 <0>        -0.1167
     11 N1          3.3941   -3.8557   -5.9323 N.pl3     1 <0>        -0.5697
     12 C11         4.8543   -3.9918   -5.9554 C.3       1 <0>         0.4303
     13 H1          5.2804   -3.4719   -5.0973 H         1 <0>         0.1118
     14 N2          5.3858   -3.4111   -7.1897 N.am      1 <0>        -0.7436
     15 C12         4.6559   -3.4216   -8.3228 C.2       1 <0>         0.6003
     16 O1          5.1219   -2.9752   -9.3556 O.2       1 <0>        -0.5662
     17 C13         3.2992   -3.9734   -8.3050 C.2       1 <0>        -0.3176
     18 C14         2.6808   -4.1843   -7.0583 C.2       1 <0>         0.4490
     19 S1          1.0497   -4.8408   -6.9444 S.3       1 <0>        -0.7827
     20 C15         2.6204   -4.2946   -9.5243 C.1       1 <0>         0.3364
     21 N3          2.0819   -4.5494  -10.4916 N.1       1 <0>        -0.4963
     22 C16         5.2226   -5.4517   -5.8905 C.ar      1 <0>        -0.1183
     23 C17         4.3946   -6.3435   -5.2344 C.ar      1 <0>        -0.0805
     24 C18         4.7281   -7.6836   -5.1721 C.ar      1 <0>        -0.1717
     25 C19         5.8943   -8.1358   -5.7684 C.ar      1 <0>         0.1033
     26 C20         6.7275   -7.2382   -6.4292 C.ar      1 <0>         0.0921
     27 C21         6.3849   -5.8971   -6.4920 C.ar      1 <0>        -0.1425
     28 O2          7.8731   -7.6772   -7.0160 O.3       1 <0>        -0.3084
     29 C22         8.6795   -6.6996   -7.6764 C.3       1 <0>         0.0260
     30 O3          6.2240   -9.4537   -5.7077 O.3       1 <0>        -0.3086
     31 C23         5.3219  -10.3168   -5.0126 C.3       1 <0>         0.0264
     32 H2         -2.5737    0.4447   -1.4610 H         1 <0>         0.0535
     33 H3         -3.3073   -1.1630   -1.2482 H         1 <0>         0.0543
     34 H4         -3.2191   -0.0360    0.1267 H         1 <0>         0.0507
     35 H5         -0.7442   -0.1849    0.0899 H         1 <0>         0.0591
     36 H6         -1.4778   -1.7926    0.3027 H         1 <0>         0.0598
     37 H7         -1.2249   -2.2294   -2.1250 H         1 <0>         0.0652
     38 H8         -0.4912   -0.6216   -2.3378 H         1 <0>         0.0632
     39 H9          1.3382   -1.2512   -0.7869 H         1 <0>         0.0675
     40 H10         0.6046   -2.8589   -0.5741 H         1 <0>         0.0686
     41 H11         0.6280   -4.4841   -2.3770 H         1 <0>         0.1197
     42 H12         1.7770   -5.2826   -4.4016 H         1 <0>         0.1379
     43 H13         3.5551   -1.4254   -4.9019 H         1 <0>         0.1198
     44 H14         2.3938   -0.6342   -2.8815 H         1 <0>         0.1187
     45 H15         6.2712   -3.0148   -7.1921 H         1 <0>         0.4010
     46 H16         3.4854   -5.9923   -4.7692 H         1 <0>         0.1352
     47 H17         4.0799   -8.3781   -4.6584 H         1 <0>         0.1348
     48 H18         7.0279   -5.1990   -7.0075 H         1 <0>         0.1357
     49 H19         9.5606   -7.1815   -8.1000 H         1 <0>         0.0974
     50 H20         8.1026   -6.2315   -8.4740 H         1 <0>         0.0567
     51 H21         8.9903   -5.9402   -6.9590 H         1 <0>         0.0529
     52 H22         5.2313   -9.9896   -3.9769 H         1 <0>         0.0536
     53 H23         4.3434  -10.2815   -5.4917 H         1 <0>         0.0558
     54 H24         5.7027  -11.3378   -5.0391 H         1 <0>         0.0971
@<TRIPOS>BOND
     1    1    2 1
     2    1   32 1
     3    1   33 1
     4    1   34 1
     5    2    3 1
     6    2   35 1
     7    2   36 1
     8    3    4 1
     9    3   37 1
    10    3   38 1
    11    4    5 1
    12    4   39 1
    13    4   40 1
    14    5   10 ar
    15    5    6 ar
    16    6    7 ar
    17    6   41 1
    18    7    8 ar
    19    7   42 1
    20    8    9 ar
    21    8   11 1
    22    9   10 ar
    23    9   43 1
    24   10   44 1
    25   11   18 1
    26   11   12 1
    27   12   13 1
    28   12   14 1
    29   12   22 1
    30   14   15 am
    31   14   45 1
    32   15   16 2
    33   15   17 1
    34   17   18 2
    35   17   20 1
    36   18   19 1
    37   20   21 3
    38   22   27 ar
    39   22   23 ar
    40   23   24 ar
    41   23   46 1
    42   24   25 ar
    43   24   47 1
    44   25   26 ar
    45   25   30 1
    46   26   27 ar
    47   26   28 1
    48   27   48 1
    49   28   29 1
    50   29   49 1
    51   29   50 1
    52   29   51 1
    53   30   31 1
    54   31   52 1
    55   31   53 1
    56   31   54 1
@<TRIPOS>MOLECULE
ZINC32972658
   58    60     0     0     0
SMALL
USER_CHARGES

@<TRIPOS>ATOM
      1 C1         -0.8556    1.0454    2.4254 C.3       1 <0>        -0.1098
      2 C2         -0.6752   -0.3879    1.9962 C.ar      1 <0>        -0.1207
      3 C3         -1.5694   -0.9591    1.1086 C.ar      1 <0>        -0.1122
      4 C4         -1.4100   -2.2708    0.7117 C.ar      1 <0>        -0.0888
      5 C5         -0.3440   -3.0227    1.2064 C.ar      1 <0>        -0.0619
      6 C6          0.5555   -2.4433    2.1005 C.ar      1 <0>        -0.0938
      7 C7          0.3887   -1.1268    2.4876 C.ar      1 <0>         0.0742
      8 F1          1.2614   -0.5615    3.3502 F         1 <0>        -0.1441
      9 C8         -0.1687   -4.4314    0.7837 C.2       1 <0>         0.5063
     10 O1         -0.9561   -4.9354    0.0028 O.2       1 <0>        -0.6218
     11 N1          0.8556   -5.1511    1.2602 N.2       1 <0>        -0.6855
     12 C9          0.9554   -6.4380    0.9635 C.2       1 <0>         0.6105
     13 N2          0.1041   -6.9969    0.0543 N.pl3     1 <0>        -0.7187
     14 C10        -0.4533   -8.2560    0.3001 C.ar      1 <0>         0.2286
     15 C11        -0.8506   -8.6024    1.5850 C.ar      1 <0>        -0.1525
     16 C12        -1.4006   -9.8464    1.8244 C.ar      1 <0>        -0.0587
     17 C13        -1.5559  -10.7467    0.7863 C.ar      1 <0>        -0.1720
     18 C14        -1.1614  -10.4049   -0.4942 C.ar      1 <0>        -0.0591
     19 C15        -0.6160   -9.1604   -0.7413 C.ar      1 <0>        -0.1834
     20 C16        -1.3320  -11.3894   -1.6224 C.3       1 <0>        -0.1083
     21 C17        -1.8315  -10.2233    3.2184 C.3       1 <0>        -0.1098
     22 N3          1.9087   -7.2049    1.5664 N.2       1 <0>        -0.6589
     23 C18         2.4025   -8.4147    0.9039 C.3       1 <0>         0.1597
     24 C19         3.5473   -8.9901    1.6972 C.2       1 <0>        -0.1792
     25 C20         4.8894   -8.6082    1.6007 C.2       1 <0>         0.0881
     26 N4          5.5814   -9.3301    2.4443 N.2       1 <0>        -0.3147
     27 N5          4.7003  -10.1956    3.1053 N.pl3     1 <0>        -0.3865
     28 C21         3.4577   -9.9635    2.6329 C.2       1 <0>         0.0783
     29 C22         2.1967  -10.6653    3.0669 C.3       1 <0>        -0.0830
     30 C23         5.0629  -11.1755    4.1323 C.3       1 <0>         0.1095
     31 C24         5.4427   -7.5482    0.6835 C.3       1 <0>        -0.0624
     32 H1         -0.3193    1.7005    1.7389 H         1 <0>         0.0695
     33 H2         -1.9160    1.2973    2.4143 H         1 <0>         0.0677
     34 H3         -0.4619    1.1750    3.4336 H         1 <0>         0.0663
     35 H4         -2.3946   -0.3770    0.7257 H         1 <0>         0.1272
     36 H5         -2.1096   -2.7150    0.0192 H         1 <0>         0.1328
     37 H6          1.3826   -3.0205    2.4868 H         1 <0>         0.1535
     38 H7         -0.1142   -6.5208   -0.7622 H         1 <0>         0.3998
     39 H8         -0.7293   -7.8998    2.3962 H         1 <0>         0.1158
     40 H9         -1.9860  -11.7190    0.9761 H         1 <0>         0.1095
     41 H10        -0.3121   -8.8924   -1.7425 H         1 <0>         0.1117
     42 H11        -2.3102  -11.2490   -2.0823 H         1 <0>         0.0642
     43 H12        -0.5534  -11.2266   -2.3676 H         1 <0>         0.0611
     44 H13        -1.2558  -12.4047   -1.2333 H         1 <0>         0.0606
     45 H14        -2.8953  -10.0179    3.3378 H         1 <0>         0.0641
     46 H15        -1.6459  -11.2849    3.3815 H         1 <0>         0.0613
     47 H16        -1.2651   -9.6396    3.9441 H         1 <0>         0.0630
     48 H17         1.5988   -9.1484    0.8413 H         1 <0>         0.0279
     49 H18         2.7455   -8.1649   -0.1001 H         1 <0>         0.0212
     50 H19         2.0387  -11.5464    2.4450 H         1 <0>         0.0687
     51 H20         2.2902  -10.9687    4.1097 H         1 <0>         0.0598
     52 H21         1.3490   -9.9885    2.9601 H         1 <0>         0.0893
     53 H22         5.0031  -10.7098    5.1160 H         1 <0>         0.0660
     54 H23         4.3752  -12.0200    4.0876 H         1 <0>         0.0791
     55 H24         6.0801  -11.5257    3.9573 H         1 <0>         0.0815
     56 H25         5.4268   -6.5839    1.1913 H         1 <0>         0.0776
     57 H26         6.4684   -7.8001    0.4141 H         1 <0>         0.0600
     58 H27         4.8331   -7.4939   -0.2185 H         1 <0>         0.0714
@<TRIPOS>BOND
     1    1    2 1
     2    1   32 1
     3    1   33 1
     4    1   34 1
     5    2    7 ar
     6    2    3 ar
     7    3    4 ar
     8    3   35 1
     9    4    5 ar
    10    4   36 1
    11    5    6 ar
    12    5    9 1
    13    6    7 ar
    14    6   37 1
    15    7    8 1
    16    9   11 1
    17    9   10 2
    18   11   12 2
    19   12   13 1
    20   12   22 1
    21   13   14 1
    22   13   38 1
    23   14   19 ar
    24   14   15 ar
    25   15   16 ar
    26   15   39 1
    27   16   17 ar
    28   16   21 1
    29   17   18 ar
    30   17   40 1
    31   18   19 ar
    32   18   20 1
    33   19   41 1
    34   20   42 1
    35   20   43 1
    36   20   44 1
    37   21   45 1
    38   21   46 1
    39   21   47 1
    40   22   23 1
    41   23   24 1
    42   23   48 1
    43   23   49 1
    44   24   28 2
    45   24   25 1
    46   25   26 2
    47   25   31 1
    48   26   27 1
    49   27   28 1
    50   27   30 1
    51   28   29 1
    52   29   50 1
    53   29   51 1
    54   29   52 1
    55   30   53 1
    56   30   54 1
    57   30   55 1
    58   31   56 1
    59   31   57 1
    60   31   58 1
@<TRIPOS>MOLECULE
ZINC08227373
   46    48     0     0     0
SMALL
USER_CHARGES
4-[3-ethyl-4-oxo-5-[(4-prop-2-ynoxyphenyl)methylene]thiazolidin-2-ylidene]aminobenzoic acid
@<TRIPOS>ATOM
      1 C1         -4.8354    2.5065    1.4236 C.3       1 <0>        -0.1647
      2 C2         -3.9118    3.3624    0.5545 C.3       1 <0>         0.1004
      3 N1         -2.6833    3.6612    1.2945 N.am      1 <0>        -0.5387
      4 C3         -2.6219    4.7445    2.0504 C.2       1 <0>         0.5595
      5 O1         -3.5665    5.5057    2.1495 O.2       1 <0>        -0.4956
      6 C4         -1.3539    4.9918    2.7628 C.2       1 <0>        -0.2224
      7 C5         -1.0153    6.0140    3.5894 C.2       1 <0>         0.0606
      8 C6          0.2547    5.9732    4.3254 C.ar      1 <0>        -0.1273
      9 C7          0.9454    4.7635    4.4687 C.ar      1 <0>        -0.0478
     10 C8          2.1378    4.7319    5.1560 C.ar      1 <0>        -0.2052
     11 C9          2.6515    5.8960    5.7156 C.ar      1 <0>         0.1539
     12 C10         1.9675    7.0987    5.5810 C.ar      1 <0>        -0.1544
     13 C11         0.7767    7.1429    4.8917 C.ar      1 <0>        -0.0431
     14 O2          3.8256    5.8582    6.3965 O.3       1 <0>        -0.3070
     15 C12         4.4766    4.5901    6.4971 C.3       1 <0>         0.1685
     16 C13         5.7248    4.7389    7.2630 C.1       1 <0>        -0.2014
     17 C14         6.7204    4.8575    7.8739 C.1       1 <0>        -0.1547
     18 S1         -0.3835    3.5837    2.2440 S.3       1 <0>        -0.0190
     19 C15        -1.6069    2.8091    1.1996 C.2       1 <0>         0.3657
     20 N2         -1.5027    1.6961    0.5033 N.2       1 <0>        -0.4415
     21 C16        -0.3427    0.9824    0.5295 C.ar      1 <0>         0.0730
     22 C17         0.8873    1.6397    0.3988 C.ar      1 <0>        -0.1550
     23 C18         2.0483    0.9243    0.4199 C.ar      1 <0>        -0.0619
     24 C19         2.0107   -0.4672    0.5718 C.ar      1 <0>        -0.1028
     25 C20         0.7812   -1.1246    0.7021 C.ar      1 <0>        -0.0773
     26 C21        -0.3800   -0.4095    0.6815 C.ar      1 <0>        -0.1043
     27 C22         3.2639   -1.2391    0.5941 C.2       1 <0>         0.4867
     28 O3          3.2314   -2.4470    0.7256 O.co2     1 <0>        -0.6288
     29 H1         -4.3312    1.5752    1.6819 H         1 <0>         0.0638
     30 H2         -5.0834    3.0503    2.3351 H         1 <0>         0.0583
     31 H3         -5.7494    2.2842    0.8730 H         1 <0>         0.0746
     32 H4         -4.4160    4.2936    0.2962 H         1 <0>         0.0931
     33 H5         -3.6638    2.8186   -0.3570 H         1 <0>         0.0985
     34 H6         -1.6800    6.8573    3.7058 H         1 <0>         0.1565
     35 H7          0.5453    3.8577    4.0375 H         1 <0>         0.1421
     36 H8          2.6730    3.8001    5.2641 H         1 <0>         0.1392
     37 H9          2.3712    8.0002    6.0178 H         1 <0>         0.1377
     38 H10         0.2459    8.0777    4.7880 H         1 <0>         0.1396
     39 H11         3.8202    3.8841    7.0057 H         1 <0>         0.0921
     40 H12         4.7053    4.2188    5.4982 H         1 <0>         0.0955
     41 H13         7.6107    4.9635    8.4202 H         1 <0>         0.2253
     42 H14         0.9163    2.7129    0.2812 H         1 <0>         0.1235
     43 H15         2.9967    1.4311    0.3191 H         1 <0>         0.1362
     44 H16         0.7525   -2.1978    0.8192 H         1 <0>         0.1351
     45 H17        -1.3283   -0.9166    0.7819 H         1 <0>         0.1247
     46 O4          4.4476   -0.6064    0.4687 O.co2     1 <0>        -0.7513
@<TRIPOS>BOND
     1    1    2 1
     2    1   29 1
     3    1   30 1
     4    1   31 1
     5    2    3 1
     6    2   32 1
     7    2   33 1
     8    3   19 1
     9    3    4 am
    10    4    5 2
    11    4    6 1
    12    6    7 2
    13    6   18 1
    14    7    8 1
    15    7   34 1
    16    8   13 ar
    17    8    9 ar
    18    9   10 ar
    19    9   35 1
    20   10   11 ar
    21   10   36 1
    22   11   12 ar
    23   11   14 1
    24   12   13 ar
    25   12   37 1
    26   13   38 1
    27   14   15 1
    28   15   16 1
    29   15   39 1
    30   15   40 1
    31   16   17 3
    32   17   41 1
    33   18   19 1
    34   19   20 2
    35   20   21 1
    36   21   26 ar
    37   21   22 ar
    38   22   23 ar
    39   22   42 1
    40   23   24 ar
    41   23   43 1
    42   24   25 ar
    43   24   27 1
    44   25   26 ar
    45   25   44 1
    46   26   45 1
    47   27   28 2
    48   27   46 1
@<TRIPOS>MOLECULE
ZINC33533185
   46    49     0     0     0
SMALL
USER_CHARGES
(2R)-2-(4-bromophenyl)-3-(furan-2-carbonyl)-4-hydroxy-1-phenethyl-2H-pyrrol-5-one
@<TRIPOS>ATOM
      1 C1         -1.8454    4.3844   -6.8819 C.ar      1 <0>        -0.1291
      2 C2         -0.8498    3.8516   -6.0845 C.ar      1 <0>        -0.1202
      3 C3         -0.8544    4.0881   -4.7226 C.ar      1 <0>        -0.1145
      4 C4         -1.8549    4.8569   -4.1579 C.ar      1 <0>        -0.0709
      5 C5         -2.8537    5.3849   -4.9544 C.ar      1 <0>        -0.1146
      6 C6         -2.8459    5.1532   -6.3172 C.ar      1 <0>        -0.1195
      7 C7         -1.8602    5.1143   -2.6730 C.3       1 <0>        -0.1087
      8 C8         -1.0654    6.3868   -2.3732 C.3       1 <0>         0.1445
      9 N1         -1.0705    6.6370   -0.9297 N.am      1 <0>        -0.6110
     10 C9         -0.0844    6.1396    0.0368 C.3       1 <0>         0.2647
     11 H1          0.9221    6.4870   -0.2395 H         1 <0>         0.0739
     12 C10        -0.5184    6.6614    1.3867 C.2       1 <0>        -0.4998
     13 C11        -1.6444    7.3828    1.1827 C.2       1 <0>         0.2686
     14 C12        -1.9803    7.3631   -0.2550 C.2       1 <0>         0.5136
     15 O1         -2.9373    7.9205   -0.7551 O.2       1 <0>        -0.5312
     16 O2         -2.3515    8.0213    2.1445 O.3       1 <0>        -0.6493
     17 C13         0.1518    6.4295    2.6716 C.2       1 <0>         0.5426
     18 O3         -0.4049    5.7825    3.5411 O.2       1 <0>        -0.4538
     19 C14         1.4910    6.9764    2.9089 C.2       1 <0>        -0.0609
     20 C15         2.2715    6.7575    4.0236 C.2       1 <0>        -0.1587
     21 C16         3.4633    7.4686    3.8224 C.2       1 <0>        -0.2266
     22 C17         3.3627    8.0863    2.6234 C.2       1 <0>        -0.0320
     23 O4          2.1766    7.7883    2.0776 O.3       1 <0>        -0.1428
     24 C18        -0.0776    4.6326    0.0414 C.ar      1 <0>        -0.0582
     25 C19         1.1201    3.9467   -0.0366 C.ar      1 <0>        -0.1109
     26 C20         1.1268    2.5646   -0.0333 C.ar      1 <0>        -0.0934
     27 C21        -0.0653    1.8676    0.0484 C.ar      1 <0>        -0.0941
     28 C22        -1.2638    2.5543    0.1211 C.ar      1 <0>        -0.0933
     29 C23        -1.2692    3.9365    0.1231 C.ar      1 <0>        -0.0788
     30 Br1        -0.0569   -0.0234    0.0530 Br        1 <0>        -0.0673
     31 H2         -1.8415    4.2003   -7.9461 H         1 <0>         0.1174
     32 H3         -0.0682    3.2510   -6.5257 H         1 <0>         0.1188
     33 H4         -0.0766    3.6718   -4.0996 H         1 <0>         0.1207
     34 H5         -3.6378    5.9819   -4.5126 H         1 <0>         0.1229
     35 H6         -3.6236    5.5698   -6.9402 H         1 <0>         0.1192
     36 H7         -2.8966    5.2390   -2.3262 H         1 <0>         0.0774
     37 H8         -1.3991    4.2626   -2.1515 H         1 <0>         0.0837
     38 H9         -0.0290    6.2620   -2.7201 H         1 <0>         0.0762
     39 H10        -1.5265    7.2386   -2.8946 H         1 <0>         0.0811
     40 H11         2.0162    6.1548    4.8826 H         1 <0>         0.1527
     41 H12         4.3029    7.5171    4.5000 H         1 <0>         0.1482
     42 H13         4.1172    8.7176    2.1779 H         1 <0>         0.2017
     43 H14         2.0508    4.4910   -0.1004 H         1 <0>         0.1284
     44 H15         2.0625    2.0288   -0.0949 H         1 <0>         0.1275
     45 H16        -2.1951    2.0105    0.1801 H         1 <0>         0.1280
     46 H17        -2.2047    4.4727    0.1837 H         1 <0>         0.1276
@<TRIPOS>BOND
     1    1    6 ar
     2    1    2 ar
     3    1   31 1
     4    2    3 ar
     5    2   32 1
     6    3    4 ar
     7    3   33 1
     8    4    5 ar
     9    4    7 1
    10    5    6 ar
    11    5   34 1
    12    6   35 1
    13    7    8 1
    14    7   36 1
    15    7   37 1
    16    8    9 1
    17    8   38 1
    18    8   39 1
    19    9   14 am
    20    9   10 1
    21   10   11 1
    22   10   12 1
    23   10   24 1
    24   12   13 2
    25   12   17 1
    26   13   14 1
    27   13   16 1
    28   14   15 2
    29   17   18 2
    30   17   19 1
    31   19   23 1
    32   19   20 2
    33   20   21 1
    34   20   40 1
    35   21   22 2
    36   21   41 1
    37   22   23 1
    38   22   42 1
    39   24   29 ar
    40   24   25 ar
    41   25   26 ar
    42   25   43 1
    43   26   27 ar
    44   26   44 1
    45   27   28 ar
    46   27   30 1
    47   28   29 ar
    48   28   45 1
    49   29   46 1
@<TRIPOS>MOLECULE
ZINC38623032
   57    59     0     0     0
SMALL
USER_CHARGES

@<TRIPOS>ATOM
      1 C1         -0.8099   -3.6456  -11.1213 C.3       1 <0>        -0.1191
      2 C2          0.1738   -3.0891  -10.1245 C.ar      1 <0>        -0.0305
      3 C3          0.0094   -3.3435   -8.7766 C.ar      1 <0>        -0.2058
      4 C4          0.9154   -2.8314   -7.8595 C.ar      1 <0>         0.1592
      5 C5          1.9851   -2.0646   -8.2979 C.ar      1 <0>        -0.1575
      6 C6          2.1461   -1.8124   -9.6465 C.ar      1 <0>        -0.0372
      7 C7          1.2443   -2.3284  -10.5603 C.ar      1 <0>        -0.0866
      8 Cl1         1.4525   -2.0156  -12.2551 Cl        1 <0>        -0.0798
      9 C8          3.3080   -0.9794  -10.1233 C.3       1 <0>        -0.1162
     10 O1          0.7551   -3.0803   -6.5329 O.3       1 <0>        -0.2996
     11 C9         -0.3474   -3.9080   -6.1567 C.3       1 <0>         0.0337
     12 H1         -0.5118   -4.6649   -6.9237 H         1 <0>         0.1427
     13 C10        -1.6044   -3.0480   -6.0112 C.3       1 <0>        -0.1449
     14 C11        -0.0446   -4.5815   -4.8430 C.2       1 <0>         0.4365
     15 O2          0.7985   -4.1177   -4.1034 O.2       1 <0>        -0.4850
     16 C12        -0.7668   -5.7943   -4.4594 C.2       1 <0>        -0.4084
     17 C13        -0.5228   -6.3924   -3.2087 C.2       1 <0>         0.1655
     18 C14        -1.2226   -7.5440   -2.8680 C.2       1 <0>        -0.3033
     19 C15        -2.1877   -8.0923   -3.8226 C.2       1 <0>         0.5710
     20 O3         -2.8133   -9.1004   -3.5465 O.2       1 <0>        -0.5451
     21 N1         -2.3828   -7.4804   -5.0057 N.am      1 <0>        -0.5205
     22 C16        -1.7042   -6.3560   -5.3334 C.2       1 <0>         0.5282
     23 O4         -1.9316   -5.7704   -6.5237 O.3       1 <0>        -0.6295
     24 C17        -3.3511   -8.0382   -5.9530 C.3       1 <0>         0.1755
     25 H2         -2.9240   -8.0308   -6.9558 H         1 <0>         0.0987
     26 C18        -3.6866   -9.4762   -5.5522 C.3       1 <0>        -0.1322
     27 C19        -4.6073   -7.2059   -5.9359 C.ar      1 <0>        -0.0742
     28 C20        -5.1277   -6.7647   -4.7336 C.ar      1 <0>        -0.1007
     29 C21        -6.2800   -6.0012   -4.7179 C.ar      1 <0>        -0.1220
     30 C22        -6.9117   -5.6787   -5.9045 C.ar      1 <0>        -0.1252
     31 C23        -6.3908   -6.1192   -7.1068 C.ar      1 <0>        -0.1236
     32 C24        -5.2361   -6.8790   -7.1228 C.ar      1 <0>        -0.0966
     33 C25        -1.0030   -8.1832   -1.6055 C.1       1 <0>         0.3128
     34 N2         -0.8288   -8.6902   -0.6040 N.1       1 <0>        -0.4857
     35 C26         0.4802   -5.7948   -2.2559 C.3       1 <0>        -0.1417
     36 H3         -0.4777   -4.6308  -11.4484 H         1 <0>         0.0757
     37 H4         -1.7915   -3.7295  -10.6550 H         1 <0>         0.0726
     38 H5         -0.8720   -2.9789  -11.9814 H         1 <0>         0.0714
     39 H6         -0.8242   -3.9404   -8.4372 H         1 <0>         0.1508
     40 H7          2.6913   -1.6648   -7.5853 H         1 <0>         0.1361
     41 H8          4.1597   -1.6278  -10.3288 H         1 <0>         0.0749
     42 H9          3.0263   -0.4502  -11.0336 H         1 <0>         0.0726
     43 H10         3.5783   -0.2579   -9.3524 H         1 <0>         0.0705
     44 H11        -1.9064   -2.6772   -6.9907 H         1 <0>         0.0589
     45 H12        -2.4085   -3.6489   -5.5863 H         1 <0>         0.0818
     46 H13        -1.3938   -2.2052   -5.3527 H         1 <0>         0.0527
     47 H14        -4.3498   -9.4670   -4.6872 H         1 <0>         0.0798
     48 H15        -4.1805   -9.9793   -6.3834 H         1 <0>         0.0420
     49 H16        -2.7683  -10.0068   -5.3003 H         1 <0>         0.0715
     50 H17        -4.6342   -7.0167   -3.8066 H         1 <0>         0.1165
     51 H18        -6.6870   -5.6571   -3.7786 H         1 <0>         0.1173
     52 H19        -7.8123   -5.0828   -5.8921 H         1 <0>         0.1160
     53 H20        -6.8844   -5.8674   -8.0337 H         1 <0>         0.1178
     54 H21        -4.8270   -7.2200   -8.0623 H         1 <0>         0.1203
     55 H22        -0.0037   -5.0251   -1.6547 H         1 <0>         0.0807
     56 H23         0.8698   -6.5750   -1.6021 H         1 <0>         0.0562
     57 H24         1.2998   -5.3520   -2.8217 H         1 <0>         0.1111
@<TRIPOS>BOND
     1    1    2 1
     2    1   36 1
     3    1   37 1
     4    1   38 1
     5    2    7 ar
     6    2    3 ar
     7    3    4 ar
     8    3   39 1
     9    4    5 ar
    10    4   10 1
    11    5    6 ar
    12    5   40 1
    13    6    7 ar
    14    6    9 1
    15    7    8 1
    16    9   41 1
    17    9   42 1
    18    9   43 1
    19   10   11 1
    20   11   12 1
    21   11   13 1
    22   11   14 1
    23   13   44 1
    24   13   45 1
    25   13   46 1
    26   14   15 2
    27   14   16 1
    28   16   22 2
    29   16   17 1
    30   17   18 2
    31   17   35 1
    32   18   19 1
    33   18   33 1
    34   19   20 2
    35   19   21 am
    36   21   22 1
    37   21   24 1
    38   22   23 1
    39   24   25 1
    40   24   26 1
    41   24   27 1
    42   26   47 1
    43   26   48 1
    44   26   49 1
    45   27   32 ar
    46   27   28 ar
    47   28   29 ar
    48   28   50 1
    49   29   30 ar
    50   29   51 1
    51   30   31 ar
    52   30   52 1
    53   31   32 ar
    54   31   53 1
    55   32   54 1
    56   33   34 3
    57   35   55 1
    58   35   56 1
    59   35   57 1
@<TRIPOS>MOLECULE
ZINC39998123
   44    46     0     0     0
SMALL
USER_CHARGES

@<TRIPOS>ATOM
      1 C1         -0.0187    1.5258    0.0104 C.3       1 <0>        -0.1440
      2 C2          0.0021   -0.0041    0.0020 C.3       1 <0>        -0.0922
      3 C3          0.7421   -0.5109    1.2415 C.3       1 <0>        -0.1448
      4 C4         -1.4333   -0.5336    0.0129 C.3       1 <0>         0.0022
      5 C5         -1.4159   -2.0348   -0.1192 C.2       1 <0>        -0.0200
      6 N1         -1.3719   -2.9663    0.8137 N.2       1 <0>        -0.2481
      7 N2         -1.3636   -4.1966    0.5359 N.2       1 <0>        -0.3496
      8 C6         -1.3991   -4.6284   -0.7249 C.2       1 <0>         0.3683
      9 S1         -1.4571   -3.0598   -1.5865 S.3       1 <0>        -0.1434
     10 N3         -1.3973   -5.8947   -1.2150 N.2       1 <0>        -0.6029
     11 C7         -1.3560   -6.9199   -0.3898 C.2       1 <0>         0.4632
     12 O1         -1.3153   -6.7116    0.9463 O.3       1 <0>        -0.6265
     13 C8         -1.3540   -8.2874   -0.9190 C.2       1 <0>        -0.0117
     14 C9         -1.3105   -9.3680   -0.0493 C.2       1 <0>         0.0160
     15 C10        -1.3086  -10.6780   -0.5562 C.2       1 <0>         0.0050
     16 C11        -1.2732  -11.8421    0.1974 C.2       1 <0>        -0.1553
     17 C12        -1.2854  -12.9061   -0.7038 C.2       1 <0>        -0.1882
     18 C13        -1.3275  -12.3624   -1.9702 C.2       1 <0>         0.0364
     19 O2         -1.3468  -11.0223   -1.8614 O.3       1 <0>        -0.1501
     20 C14        -1.3531  -13.1238   -3.2332 C.ar      1 <0>        -0.0276
     21 C15        -1.3405  -14.5212   -3.2105 C.ar      1 <0>        -0.0681
     22 C16        -1.3645  -15.2272   -4.3942 C.ar      1 <0>        -0.1515
     23 C17        -1.4005  -14.5538   -5.6056 C.ar      1 <0>         0.1025
     24 C18        -1.4130  -13.1677   -5.6346 C.ar      1 <0>        -0.1480
     25 C19        -1.3956  -12.4507   -4.4574 C.ar      1 <0>        -0.0685
     26 F1         -1.4229  -15.2512   -6.7625 F         1 <0>        -0.1381
     27 C20        -1.3971   -8.5079   -2.3333 C.1       1 <0>         0.2724
     28 N4         -1.4312   -8.6828   -3.4552 N.1       1 <0>        -0.4208
     29 H1          1.0039    1.9031    0.0027 H         1 <0>         0.0536
     30 H2         -0.5459    1.8868   -0.8726 H         1 <0>         0.0533
     31 H3         -0.5289    1.8773    0.9072 H         1 <0>         0.0551
     32 H4          0.5123   -0.3556   -0.8948 H         1 <0>         0.0701
     33 H5          0.2319   -0.1594    2.1383 H         1 <0>         0.0542
     34 H6          0.7568   -1.6008    1.2356 H         1 <0>         0.0626
     35 H7          1.7647   -0.1336    1.2338 H         1 <0>         0.0468
     36 H8         -1.9156   -0.2570    0.9504 H         1 <0>         0.0875
     37 H9         -1.9862   -0.1019   -0.8214 H         1 <0>         0.0775
     38 H10        -1.2780   -9.2017    1.0174 H         1 <0>         0.1853
     39 H11        -1.2417  -11.9111    1.2748 H         1 <0>         0.1640
     40 H12        -1.2650  -13.9573   -0.4567 H         1 <0>         0.1564
     41 H13        -1.3118  -15.0468   -2.2675 H         1 <0>         0.1404
     42 H14        -1.3548  -16.3070   -4.3779 H         1 <0>         0.1417
     43 H15        -1.4411  -12.6488   -6.5813 H         1 <0>         0.1411
     44 H16        -1.4100  -11.3711   -4.4812 H         1 <0>         0.1439
@<TRIPOS>BOND
     1    1    2 1
     2    1   29 1
     3    1   30 1
     4    1   31 1
     5    2    3 1
     6    2    4 1
     7    2   32 1
     8    3   33 1
     9    3   34 1
    10    3   35 1
    11    4    5 1
    12    4   36 1
    13    4   37 1
    14    5    9 1
    15    5    6 2
    16    6    7 1
    17    7    8 2
    18    8    9 1
    19    8   10 1
    20   10   11 2
    21   11   12 1
    22   11   13 1
    23   13   14 2
    24   13   27 1
    25   14   15 1
    26   14   38 1
    27   15   19 1
    28   15   16 2
    29   16   17 1
    30   16   39 1
    31   17   18 2
    32   17   40 1
    33   18   19 1
    34   18   20 1
    35   20   25 ar
    36   20   21 ar
    37   21   22 ar
    38   21   41 1
    39   22   23 ar
    40   22   42 1
    41   23   24 ar
    42   23   26 1
    43   24   25 ar
    44   24   43 1
    45   25   44 1
    46   27   28 3
@<TRIPOS>MOLECULE
ZINC41958907
   35    35     0     0     0
SMALL
USER_CHARGES

@<TRIPOS>ATOM
      1 C1          0.5510   -0.0169   -0.9610 C.3       1 <0>        -0.1395
      2 C2         -0.4024   -0.2346    0.2157 C.3       1 <0>        -0.1036
      3 C3         -1.4906   -1.2317   -0.1874 C.3       1 <0>        -0.1465
      4 C4          0.3788   -0.7872    1.4095 C.3       1 <0>        -0.0692
      5 C5         -0.5269   -0.8165    2.6422 C.3       1 <0>         0.0479
      6 C6          0.2295   -1.4415    3.8162 C.3       1 <0>        -0.1682
      7 C7         -0.9351    0.5896    2.9992 C.2       1 <0>         0.4871
      8 O1         -0.5473    1.5272    2.3231 O.co2     1 <0>        -0.6606
      9 O2         -1.6531    0.7896    3.9640 O.co2     1 <0>        -0.6803
     10 O3         -1.6923   -1.5933    2.3587 O.3       1 <0>        -0.3025
     11 C8         -2.6610   -1.6232    3.3119 C.ar      1 <0>         0.2383
     12 C9         -2.6414   -2.6050    4.2925 C.ar      1 <0>        -0.1202
     13 C10        -3.6275   -2.6327    5.2609 C.ar      1 <0>        -0.0145
     14 C11        -4.6329   -1.6837    5.2529 C.ar      1 <0>        -0.0602
     15 C12        -4.6549   -0.7044    4.2772 C.ar      1 <0>        -0.0112
     16 C13        -3.6682   -0.6685    3.3097 C.ar      1 <0>        -0.0579
     17 Br1        -3.6948    0.6761    1.9803 Br        1 <0>         0.0220
     18 N1         -5.6880   -1.7165    6.2906 N.pl3     1 <0>         0.0456
     19 O4         -5.6700   -2.5727    7.1441 O.2       1 <0>        -0.1648
     20 O5         -6.5677   -0.8872    6.2847 O.3       1 <0>        -0.1594
     21 Br2        -1.2674   -3.9042    4.3035 Br        1 <0>        -0.0084
     22 H1          1.0768   -0.9464   -1.1794 H         1 <0>         0.0412
     23 H2         -0.0183    0.2931   -1.8373 H         1 <0>         0.0448
     24 H3          1.2737    0.7577   -0.7046 H         1 <0>         0.0497
     25 H4         -0.8628    0.7144    0.4906 H         1 <0>         0.1084
     26 H5         -1.0544   -2.2258   -0.2853 H         1 <0>         0.0386
     27 H6         -2.2679   -1.2496    0.5765 H         1 <0>         0.0767
     28 H7         -1.9248   -0.9300   -1.1406 H         1 <0>         0.0352
     29 H8          0.7191   -1.7980    1.1846 H         1 <0>         0.0486
     30 H9          1.2404   -0.1493    1.6067 H         1 <0>         0.0772
     31 H10         1.1184   -0.8489    4.0324 H         1 <0>         0.0601
     32 H11        -0.4158   -1.4623    4.6944 H         1 <0>         0.0590
     33 H12         0.5247   -2.4585    3.5580 H         1 <0>         0.0619
     34 H13        -3.6127   -3.3966    6.0242 H         1 <0>         0.1623
     35 H14        -5.4415    0.0357    4.2734 H         1 <0>         0.1623
@<TRIPOS>BOND
     1    1    2 1
     2    1   22 1
     3    1   23 1
     4    1   24 1
     5    2    3 1
     6    2    4 1
     7    2   25 1
     8    3   26 1
     9    3   27 1
    10    3   28 1
    11    4    5 1
    12    4   29 1
    13    4   30 1
    14    5    6 1
    15    5    7 1
    16    5   10 1
    17    6   31 1
    18    6   32 1
    19    6   33 1
    20    7    8 2
    21    7    9 1
    22   10   11 1
    23   11   16 ar
    24   11   12 ar
    25   12   13 ar
    26   12   21 1
    27   13   14 ar
    28   13   34 1
    29   14   15 ar
    30   14   18 1
    31   15   16 ar
    32   15   35 1
    33   16   17 1
    34   18   19 2
    35   18   20 1
@<TRIPOS>MOLECULE
ZINC13894831
   59    62     0     0     0
SMALL
USER_CHARGES

@<TRIPOS>ATOM
      1 C1          1.8112    1.3258    2.3246 C.3       1 <0>        -0.1530
      2 C2          1.9115   -0.1711    2.0241 C.3       1 <0>        -0.1168
      3 C3          0.6806   -0.8872    2.5835 C.3       1 <0>        -0.0485
      4 H1          0.5810   -0.6628    3.6454 H         1 <0>         0.0760
      5 C4         -0.5690   -0.4083    1.8416 C.3       1 <0>        -0.1452
      6 C5          0.8365   -2.3744    2.3967 C.ar      1 <0>        -0.0837
      7 C6          0.9860   -2.8983    1.1258 C.ar      1 <0>        -0.1072
      8 C7          1.1291   -4.2609    0.9515 C.ar      1 <0>        -0.1017
      9 C8          1.1234   -5.1048    2.0540 C.ar      1 <0>         0.1499
     10 C9          0.9736   -4.5757    3.3289 C.ar      1 <0>        -0.0940
     11 C10         0.8357   -3.2118    3.4972 C.ar      1 <0>        -0.1097
     12 N1          1.2679   -6.4877    1.8803 N.am      1 <0>        -0.5488
     13 C11         2.4502   -6.9912    1.4637 C.2       1 <0>         0.5629
     14 O1          3.3976   -6.2618    1.2353 O.2       1 <0>        -0.5193
     15 C12         2.5569   -8.4498    1.2948 C.2       1 <0>        -0.2526
     16 C13         3.7443   -9.0437    0.8686 C.2       1 <0>         0.0926
     17 C14         3.7770  -10.4151    0.5765 C.2       1 <0>         0.0296
     18 C15         4.5965  -11.3672    1.1759 C.2       1 <0>        -0.1551
     19 C16         4.2958  -12.5909    0.5830 C.2       1 <0>        -0.2118
     20 C17         3.3249  -12.3807   -0.3447 C.2       1 <0>         0.0152
     21 N2          2.9982  -11.0723   -0.3549 N.pl3     1 <0>        -0.3714
     22 C18         1.9872  -10.4510   -1.2140 C.3       1 <0>         0.1483
     23 C19         2.6500   -9.8927   -2.4469 C.ar      1 <0>        -0.1028
     24 C20         3.1406   -8.6001   -2.4427 C.ar      1 <0>        -0.1021
     25 C21         3.7486   -8.0881   -3.5734 C.ar      1 <0>        -0.1143
     26 C22         3.8665   -8.8686   -4.7085 C.ar      1 <0>        -0.1168
     27 C23         3.3769  -10.1611   -4.7124 C.ar      1 <0>        -0.0914
     28 C24         2.7726  -10.6748   -3.5799 C.ar      1 <0>        -0.1004
     29 C25         3.5050  -11.0117   -5.9497 C.3       1 <0>        -0.1117
     30 C26         1.4023   -9.2312    1.5836 C.2       1 <0>         0.4833
     31 O2          1.4342  -10.5742    1.4494 O.3       1 <0>        -0.6148
     32 N3          0.2988   -8.6240    1.9853 N.2       1 <0>        -0.6656
     33 C27         0.2318   -7.3034    2.1346 C.2       1 <0>         0.6658
     34 O3         -0.8169   -6.8123    2.5136 O.2       1 <0>        -0.5636
     35 H2          1.7613    1.4774    3.4028 H         1 <0>         0.0526
     36 H3          2.6881    1.8360    1.9261 H         1 <0>         0.0518
     37 H4          0.9126    1.7304    1.8589 H         1 <0>         0.0559
     38 H5          1.9614   -0.3227    0.9459 H         1 <0>         0.0634
     39 H6          2.8101   -0.5757    2.4898 H         1 <0>         0.0635
     40 H7         -0.4694   -0.6327    0.7797 H         1 <0>         0.0561
     41 H8         -1.4459   -0.9185    2.2401 H         1 <0>         0.0564
     42 H9         -0.6818    0.6674    1.9767 H         1 <0>         0.0572
     43 H10         0.9904   -2.2414    0.2686 H         1 <0>         0.1216
     44 H11         1.2451   -4.6696   -0.0415 H         1 <0>         0.1180
     45 H12         0.9684   -5.2297    4.1884 H         1 <0>         0.1214
     46 H13         0.7229   -2.7992    4.4889 H         1 <0>         0.1228
     47 H14         4.6388   -8.4477    0.7634 H         1 <0>         0.1415
     48 H15         5.3263  -11.1906    1.9521 H         1 <0>         0.1326
     49 H16         4.7540  -13.5401    0.8186 H         1 <0>         0.1301
     50 H17         2.8821  -13.1412   -0.9708 H         1 <0>         0.1528
     51 H18         1.2489  -11.1982   -1.5052 H         1 <0>         0.0963
     52 H19         1.4937   -9.6454   -0.6703 H         1 <0>         0.1020
     53 H20         3.0485   -7.9904   -1.5561 H         1 <0>         0.1188
     54 H21         4.1312   -7.0781   -3.5704 H         1 <0>         0.1233
     55 H22         4.3409   -8.4682   -5.5923 H         1 <0>         0.1204
     56 H23         2.3933  -11.6860   -3.5817 H         1 <0>         0.1213
     57 H24         4.4451  -11.5622   -5.9164 H         1 <0>         0.0690
     58 H25         2.6735  -11.7150   -5.9948 H         1 <0>         0.0653
     59 H26         3.4890  -10.3731   -6.8329 H         1 <0>         0.0645
@<TRIPOS>BOND
     1    1    2 1
     2    1   35 1
     3    1   36 1
     4    1   37 1
     5    2    3 1
     6    2   38 1
     7    2   39 1
     8    3    4 1
     9    3    5 1
    10    3    6 1
    11    5   40 1
    12    5   41 1
    13    5   42 1
    14    6   11 ar
    15    6    7 ar
    16    7    8 ar
    17    7   43 1
    18    8    9 ar
    19    8   44 1
    20    9   10 ar
    21    9   12 1
    22   10   11 ar
    23   10   45 1
    24   11   46 1
    25   12   33 am
    26   12   13 am
    27   13   14 2
    28   13   15 1
    29   15   16 2
    30   15   30 1
    31   16   17 1
    32   16   47 1
    33   17   21 1
    34   17   18 2
    35   18   19 1
    36   18   48 1
    37   19   20 2
    38   19   49 1
    39   20   21 1
    40   20   50 1
    41   21   22 1
    42   22   23 1
    43   22   51 1
    44   22   52 1
    45   23   28 ar
    46   23   24 ar
    47   24   25 ar
    48   24   53 1
    49   25   26 ar
    50   25   54 1
    51   26   27 ar
    52   26   55 1
    53   27   28 ar
    54   27   29 1
    55   28   56 1
    56   29   57 1
    57   29   58 1
    58   29   59 1
    59   30   31 1
    60   30   32 2
    61   32   33 1
    62   33   34 2
@<TRIPOS>MOLECULE
ZINC16248860
   67    70     0     0     0
SMALL
USER_CHARGES
(4S)-4-[(3S,5R,8R,9R,10R,12R,13R,14S,17S)-3,12-dihydroxy-10,13-dimethyl-2,3,4,5,6,7,8,9,11,12,14,15,16,17-tetradecahydro-1H-cyclopenta[a]phenanthren-17-yl]pentanoic acid
@<TRIPOS>ATOM
      1 C1          1.8290   -0.7183   -2.6923 C.3       1 <0>        -0.1455
      2 C2          1.1881   -0.3068   -1.3654 C.3       1 <0>        -0.0870
      3 H1          0.1234   -0.5390   -1.3887 H         1 <0>         0.0658
      4 C3          1.8521   -1.0724   -0.2192 C.3       1 <0>        -0.1152
      5 C4          1.8057   -2.5731   -0.5139 C.3       1 <0>        -0.1619
      6 C5          2.4597   -3.3272    0.6151 C.2       1 <0>         0.4595
      7 O1          2.9161   -2.7261    1.5586 O.co2     1 <0>        -0.6355
      8 C6          1.3772    1.1921   -1.1525 C.3       1 <0>        -0.0659
      9 H2          0.9699    1.7487   -1.9985 H         1 <0>         0.0653
     10 C7          2.8830    1.5206   -0.9782 C.3       1 <0>        -0.1230
     11 C8          3.0733    1.9598    0.4979 C.3       1 <0>        -0.1137
     12 C9          1.8252    1.3942    1.1940 C.3       1 <0>        -0.1064
     13 H3          1.9687    0.3161    1.3225 H         1 <0>         0.1184
     14 C10         0.7237    1.6725    0.1453 C.3       1 <0>        -0.0405
     15 C11        -0.5473    0.9853    0.5802 C.3       1 <0>         0.1190
     16 H4         -0.4279   -0.0977    0.5945 H         1 <0>         0.0697
     17 C12        -0.9699    1.4815    1.9645 C.3       1 <0>        -0.1400
     18 C13         0.1249    1.5018    3.0203 C.3       1 <0>        -0.0505
     19 H5         -0.2227    2.2560    3.7806 H         1 <0>         0.0492
     20 C14         1.4508    2.0370    2.5044 C.3       1 <0>        -0.0606
     21 H6          1.3237    3.1292    2.3355 H         1 <0>         0.0569
     22 C15         2.5824    1.9299    3.5210 C.3       1 <0>        -0.1090
     23 C16         2.6600    0.5217    4.1094 C.3       1 <0>        -0.1217
     24 C17         1.3341    0.2341    4.8106 C.3       1 <0>        -0.0611
     25 H7          1.1282    1.0576    5.5096 H         1 <0>         0.0658
     26 C18         0.1999    0.1868    3.7858 C.3       1 <0>        -0.0389
     27 C19        -1.1136   -0.0020    4.5663 C.3       1 <0>        -0.1044
     28 C20        -1.0760   -1.2900    5.3816 C.3       1 <0>        -0.1488
     29 C21         0.1018   -1.2949    6.3518 C.3       1 <0>         0.1086
     30 H8          0.1465   -2.2640    6.8575 H         1 <0>         0.0480
     31 C22         1.4139   -1.0663    5.6012 C.3       1 <0>        -0.1087
     32 O2         -0.0747   -0.2688    7.3292 O.3       1 <0>        -0.5649
     33 C23         0.3811   -1.0055    2.8510 C.3       1 <0>        -0.1582
     34 O3         -1.5905    1.2975   -0.3615 O.3       1 <0>        -0.5704
     35 C24         0.4628    3.1772   -0.0045 C.3       1 <0>        -0.1341
     36 H9          1.4391   -0.0912   -3.4941 H         1 <0>         0.0441
     37 H10         2.9101   -0.5948   -2.6274 H         1 <0>         0.0528
     38 H11         1.5945   -1.7622   -2.9008 H         1 <0>         0.0564
     39 H12         2.8898   -0.7532   -0.1220 H         1 <0>         0.0639
     40 H13         1.3206   -0.8681    0.7103 H         1 <0>         0.0858
     41 H14         0.7680   -2.8923   -0.6110 H         1 <0>         0.0548
     42 H15         2.3372   -2.7774   -1.4433 H         1 <0>         0.0613
     43 H16         3.4824    0.6323   -1.1824 H         1 <0>         0.0722
     44 H17         3.1699    2.3268   -1.6528 H         1 <0>         0.0543
     45 H18         3.9747    1.5089    0.9188 H         1 <0>         0.0628
     46 H19         3.1176    3.0418    0.5878 H         1 <0>         0.0594
     47 H20        -1.3797    2.4971    1.8689 H         1 <0>         0.0601
     48 H21        -1.8007    0.8583    2.3193 H         1 <0>         0.0606
     49 H22         3.5296    2.1716    3.0367 H         1 <0>         0.0618
     50 H23         2.4081    2.6465    4.3271 H         1 <0>         0.0517
     51 H24         3.4694    0.4871    4.8442 H         1 <0>         0.0535
     52 H25         2.8599   -0.2028    3.3286 H         1 <0>         0.0838
     53 H26        -1.2476    0.8511    5.2337 H         1 <0>         0.0593
     54 H27        -1.9449   -0.0403    3.8635 H         1 <0>         0.0573
     55 H28        -2.0064   -1.3622    5.9637 H         1 <0>         0.0526
     56 H29        -1.0287   -2.1612    4.7311 H         1 <0>         0.0768
     57 H30         2.2260   -0.9858    6.3357 H         1 <0>         0.0618
     58 H31         1.6277   -1.9118    4.9545 H         1 <0>         0.0877
     59 H32        -0.8781   -0.3641    7.8588 H         1 <0>         0.3691
     60 H33         1.3682   -0.9596    2.3908 H         1 <0>         0.0919
     61 H34         0.2881   -1.9306    3.4198 H         1 <0>         0.0553
     62 H35        -0.3834   -0.9779    2.0745 H         1 <0>         0.0462
     63 H36        -2.4463    0.9025   -0.1456 H         1 <0>         0.3672
     64 H37         0.1483    3.5887    0.9546 H         1 <0>         0.0507
     65 H38         1.3767    3.6737   -0.3307 H         1 <0>         0.0502
     66 H39        -0.3218    3.3381   -0.7438 H         1 <0>         0.0575
     67 O4          2.5351   -4.6667    0.5725 O.co2     1 <0>        -0.7830
@<TRIPOS>BOND
     1    1    2 1
     2    1   36 1
     3    1   37 1
     4    1   38 1
     5    2    3 1
     6    2    4 1
     7    2    8 1
     8    4    5 1
     9    4   39 1
    10    4   40 1
    11    5    6 1
    12    5   41 1
    13    5   42 1
    14    6    7 2
    15    6   67 1
    16    8    9 1
    17    8   14 1
    18    8   10 1
    19   10   11 1
    20   10   43 1
    21   10   44 1
    22   11   12 1
    23   11   45 1
    24   11   46 1
    25   12   13 1
    26   12   20 1
    27   12   14 1
    28   14   15 1
    29   14   35 1
    30   15   16 1
    31   15   17 1
    32   15   34 1
    33   17   18 1
    34   17   47 1
    35   17   48 1
    36   18   19 1
    37   18   26 1
    38   18   20 1
    39   20   21 1
    40   20   22 1
    41   22   23 1
    42   22   49 1
    43   22   50 1
    44   23   24 1
    45   23   51 1
    46   23   52 1
    47   24   25 1
    48   24   31 1
    49   24   26 1
    50   26   27 1
    51   26   33 1
    52   27   28 1
    53   27   53 1
    54   27   54 1
    55   28   29 1
    56   28   55 1
    57   28   56 1
    58   29   30 1
    59   29   31 1
    60   29   32 1
    61   31   57 1
    62   31   58 1
    63   32   59 1
    64   33   60 1
    65   33   61 1
    66   33   62 1
    67   34   63 1
    68   35   64 1
    69   35   65 1
    70   35   66 1
@<TRIPOS>MOLECULE
ZINC34955859
   28    29     0     0     0
SMALL
USER_CHARGES

@<TRIPOS>ATOM
      1 C1         -0.0168    1.3846    0.0097 C.ar      1 <0>        -0.2829
      2 C2          1.1700    2.0938    0.0021 C.ar      1 <0>        -0.0546
      3 C3          2.3788    1.4233   -0.0130 C.ar      1 <0>        -0.0901
      4 C4          2.4036    0.0321   -0.0206 C.ar      1 <0>         0.2231
      5 C5          1.2139   -0.6809   -0.0131 C.ar      1 <0>        -0.2343
      6 C6          0.0021   -0.0041    0.0020 C.ar      1 <0>         0.3123
      7 N1         -1.1988   -0.7199    0.0101 N.2       1 <0>        -1.0739
      8 S1         -2.6442    0.0880    0.0287 S.o2      1 <0>         2.5967
      9 O1         -2.7177    0.7603    1.2784 O.2       1 <0>        -1.0247
     10 O2         -2.7423    0.7737   -1.2121 O.2       1 <0>        -1.0081
     11 C7         -3.9202   -1.1271    0.0348 C.ar      1 <0>        -0.6010
     12 C8         -4.7625   -1.2393    1.1252 C.ar      1 <0>        -0.0146
     13 C9         -5.7635   -2.1922    1.1306 C.ar      1 <0>        -0.1147
     14 C10        -5.9232   -3.0344    0.0446 C.ar      1 <0>        -0.0454
     15 C11        -5.0813   -2.9224   -1.0467 C.ar      1 <0>        -0.1115
     16 C12        -4.0827   -1.9649   -1.0540 C.ar      1 <0>         0.0631
     17 Cl1        -3.0291   -1.8196   -2.4261 Cl        1 <0>        -0.0178
     18 Br1        -7.2922   -4.3389    0.0529 Br        1 <0>        -0.0416
     19 N2          3.6262   -0.6462   -0.0364 N.pl3     1 <0>        -0.8828
     20 F1          3.5368    2.1192   -0.0207 F         1 <0>        -0.1675
     21 H1         -0.9596    1.9110    0.0260 H         1 <0>         0.1026
     22 H2          1.1526    3.1736    0.0077 H         1 <0>         0.1143
     23 H3          1.2304   -1.7608   -0.0194 H         1 <0>         0.1197
     24 H4         -4.6380   -0.5824    1.9733 H         1 <0>         0.1569
     25 H5         -6.4210   -2.2797    1.9829 H         1 <0>         0.1433
     26 H6         -5.2057   -3.5797   -1.8946 H         1 <0>         0.1466
     27 H7          4.4579   -0.1469   -0.0419 H         1 <0>         0.3924
     28 H8          3.6428   -1.6160   -0.0417 H         1 <0>         0.3945
@<TRIPOS>BOND
     1    1    6 ar
     2    1    2 ar
     3    1   21 1
     4    2    3 ar
     5    2   22 1
     6    3    4 ar
     7    3   20 1
     8    4    5 ar
     9    4   19 1
    10    5    6 ar
    11    5   23 1
    12    6    7 1
    13    7    8 1
    14    8    9 2
    15    8   10 2
    16    8   11 1
    17   11   16 ar
    18   11   12 ar
    19   12   13 ar
    20   12   24 1
    21   13   14 ar
    22   13   25 1
    23   14   15 ar
    24   14   18 1
    25   15   16 ar
    26   15   26 1
    27   16   17 1
    28   19   27 1
    29   19   28 1
@<TRIPOS>MOLECULE
ZINC37392091
   34    35     0     0     0
SMALL
USER_CHARGES

@<TRIPOS>ATOM
      1 C1         -0.0184    1.5028    0.0103 C.3       1 <0>        -0.1120
      2 C2          0.0021   -0.0041    0.0020 C.ar      1 <0>        -0.0711
      3 C3          0.0058   -0.6873   -1.1984 C.ar      1 <0>        -0.1551
      4 C4          0.0251   -2.0761   -1.2051 C.ar      1 <0>         0.1841
      5 C5          0.0406   -2.7733   -0.0035 C.ar      1 <0>        -0.1071
      6 C6          0.0368   -2.0840    1.1929 C.ar      1 <0>        -0.5701
      7 C7          0.0229   -0.7010    1.1960 C.ar      1 <0>        -0.0289
      8 C8          0.0251    0.0480    2.5037 C.3       1 <0>        -0.1384
      9 S1          0.0559   -2.9672    2.7175 S.o2      1 <0>         2.6082
     10 O1         -0.9736   -2.4096    3.5228 O.2       1 <0>        -1.0219
     11 O2          0.1002   -4.3483    2.3861 O.2       1 <0>        -1.0298
     12 N1          1.4885   -2.6147    3.4696 N.2       1 <0>        -1.0627
     13 C9          1.7828   -3.1810    4.7135 C.ar      1 <0>         0.3035
     14 C10         0.8772   -4.0438    5.3169 C.ar      1 <0>        -0.2518
     15 C11         1.1707   -4.6022    6.5456 C.ar      1 <0>        -0.0282
     16 C12         2.3656   -4.3031    7.1758 C.ar      1 <0>        -0.1836
     17 C13         3.2700   -3.4436    6.5781 C.ar      1 <0>        -0.0380
     18 C14         2.9846   -2.8861    5.3460 C.ar      1 <0>        -0.0902
     19 Cl1         4.1231   -1.8139    4.5925 Cl        1 <0>        -0.0785
     20 Br1         2.7630   -5.0701    8.8580 Br        1 <0>        -0.0877
     21 N2          0.0284   -2.7702   -2.4172 N.pl3     1 <0>        -0.8832
     22 H1          1.0042    1.8801    0.0026 H         1 <0>         0.0702
     23 H2         -0.5455    1.8639   -0.8728 H         1 <0>         0.0615
     24 H3         -0.5286    1.8543    0.9071 H         1 <0>         0.0713
     25 H4         -0.0067   -0.1423   -2.1307 H         1 <0>         0.1195
     26 H5          0.0553   -3.8532   -0.0052 H         1 <0>         0.1343
     27 H6         -1.0019    0.2146    2.8287 H         1 <0>         0.0764
     28 H7          0.5541   -0.5366    3.2564 H         1 <0>         0.0948
     29 H8          0.5247    1.0078    2.3719 H         1 <0>         0.0673
     30 H9         -0.0559   -4.2777    4.8260 H         1 <0>         0.1129
     31 H10         0.4664   -5.2729    7.0152 H         1 <0>         0.1181
     32 H11         4.2016   -3.2114    7.0726 H         1 <0>         0.1247
     33 H12         0.0172   -2.2823   -3.2555 H         1 <0>         0.3943
     34 H13         0.0419   -3.7401   -2.4206 H         1 <0>         0.3975
@<TRIPOS>BOND
     1    1    2 1
     2    1   22 1
     3    1   23 1
     4    1   24 1
     5    2    7 ar
     6    2    3 ar
     7    3    4 ar
     8    3   25 1
     9    4    5 ar
    10    4   21 1
    11    5    6 ar
    12    5   26 1
    13    6    7 ar
    14    6    9 1
    15    7    8 1
    16    8   27 1
    17    8   28 1
    18    8   29 1
    19    9   10 2
    20    9   11 2
    21    9   12 1
    22   12   13 1
    23   13   18 ar
    24   13   14 ar
    25   14   15 ar
    26   14   30 1
    27   15   16 ar
    28   15   31 1
    29   16   17 ar
    30   16   20 1
    31   17   18 ar
    32   17   32 1
    33   18   19 1
    34   21   33 1
    35   21   34 1
@<TRIPOS>MOLECULE
ZINC49060902
   27    28     0     0     0
SMALL
USER_CHARGES

@<TRIPOS>ATOM
      1 C1         -0.0166    1.3734    0.0096 C.ar      1 <0>        -0.2274
      2 C2          1.1697    2.0900    0.0021 C.ar      1 <0>        -0.0356
      3 C3          2.3831    1.4328   -0.0135 C.ar      1 <0>        -0.2527
      4 C4          2.4226    0.0443   -0.0218 C.ar      1 <0>         0.3235
      5 C5          1.2228   -0.6847   -0.0138 C.ar      1 <0>        -0.2002
      6 C6          0.0021   -0.0041    0.0020 C.ar      1 <0>        -0.0377
      7 C7          1.2503   -2.1570   -0.0230 C.2       1 <0>         0.3953
      8 S1          2.7485   -2.9851   -0.0434 S.2       1 <0>        -0.5230
      9 N1          0.0959   -2.8526   -0.0152 N.pl3     1 <0>        -0.8031
     10 N2          3.6432   -0.6195   -0.0384 N.2       1 <0>        -0.9405
     11 S2          5.0557    0.2447   -0.0484 S.o2      1 <0>         2.5698
     12 O1          5.1016    0.9336   -1.2904 O.2       1 <0>        -1.0119
     13 O2          5.1278    0.9194    1.2002 O.2       1 <0>        -1.0118
     14 C8          6.3784   -0.9192   -0.0689 C.2       1 <0>        -0.6427
     15 C9          7.7152   -0.6925   -0.0761 C.2       1 <0>        -0.0334
     16 C10         8.5781   -1.7728   -0.0922 C.2       1 <0>        -0.1664
     17 C11         8.0619   -3.0261   -0.1002 C.2       1 <0>        -0.1963
     18 S3          6.3062   -2.7030   -0.0777 S.3       1 <0>         0.2723
     19 Br1         8.3892    1.0743   -0.0650 Br        1 <0>        -0.0408
     20 H1         -0.9607    1.8977    0.0260 H         1 <0>         0.1106
     21 H2          1.1444    3.1696    0.0082 H         1 <0>         0.1113
     22 H3          3.3029    1.9987   -0.0196 H         1 <0>         0.1081
     23 H4         -0.9254   -0.5574    0.0083 H         1 <0>         0.1067
     24 H5         -0.7530   -2.3834   -0.0036 H         1 <0>         0.3884
     25 H6          0.1140   -3.8224   -0.0213 H         1 <0>         0.4072
     26 H7          9.6472   -1.6203   -0.0985 H         1 <0>         0.1388
     27 H8          8.5787   -3.9744   -0.1126 H         1 <0>         0.1914
@<TRIPOS>BOND
     1    1    6 ar
     2    1    2 ar
     3    1   20 1
     4    2    3 ar
     5    2   21 1
     6    3    4 ar
     7    3   22 1
     8    4    5 ar
     9    4   10 1
    10    5    6 ar
    11    5    7 1
    12    6   23 1
    13    7    8 2
    14    7    9 1
    15    9   24 1
    16    9   25 1
    17   10   11 1
    18   11   12 2
    19   11   13 2
    20   11   14 1
    21   14   18 1
    22   14   15 2
    23   15   16 1
    24   15   19 1
    25   16   17 2
    26   16   26 1
    27   17   18 1
    28   17   27 1
@<TRIPOS>MOLECULE
ZINC63811146
   43    45     0     0     0
SMALL
USER_CHARGES

@<TRIPOS>ATOM
      1 C1         -0.0187    1.5258    0.0104 C.3       1 <0>        -0.1526
      2 C2          0.0021   -0.0041    0.0020 C.3       1 <0>        -0.0982
      3 C3          0.7182   -0.4975   -1.2568 C.3       1 <0>        -0.1466
      4 C4          0.7421   -0.5109    1.2415 C.3       1 <0>        -0.1180
      5 C5         -0.0416   -0.1236    2.4973 C.3       1 <0>         0.2290
      6 C6          0.7462   -0.5138    3.7213 C.2       1 <0>        -0.1470
      7 C7          1.5147    0.2615    4.5248 C.2       1 <0>        -0.1515
      8 C8          2.1520   -0.3184    5.6056 C.2       1 <0>        -0.1540
      9 C9          1.9896   -1.6453    5.8301 C.2       1 <0>        -0.1808
     10 S1          0.9031   -2.1156    4.4939 S.3       1 <0>         0.0449
     11 N1         -1.3301   -0.8207    2.5031 N.am      1 <0>        -0.7221
     12 C10        -2.3734   -0.3028    3.1812 C.2       1 <0>         0.5659
     13 O1         -2.2453    0.7424    3.7877 O.2       1 <0>        -0.5237
     14 C11        -3.6763   -1.0076    3.1871 C.ar      1 <0>        -0.0806
     15 C12        -3.8155   -2.2173    2.4890 C.ar      1 <0>        -0.1665
     16 C13        -5.0027   -2.8839    2.4794 C.ar      1 <0>        -0.0115
     17 C14        -6.1033   -2.3610    3.1731 C.ar      1 <0>        -0.2228
     18 C15        -5.9769   -1.1384    3.8834 C.ar      1 <0>         0.2149
     19 C16        -4.7443   -0.4696    3.8861 C.ar      1 <0>        -0.0717
     20 N2         -7.0386   -0.6524    4.5419 N.2       1 <0>        -0.5503
     21 C17        -8.1941   -1.2992    4.5342 C.2       1 <0>         0.5084
     22 N3         -8.3652   -2.4590    3.8783 N.pl3     1 <0>        -0.6013
     23 H1         -9.2298   -2.8981    3.9006 H         1 <0>         0.4204
     24 C18        -7.3501   -3.0218    3.1878 C.2       1 <0>         0.5039
     25 O2         -7.5228   -4.1826    2.5317 O.3       1 <0>        -0.6133
     26 S2         -9.5177   -0.6336    5.3920 S.2       1 <0>        -0.7109
     27 H2          1.0039    1.9031    0.0027 H         1 <0>         0.0548
     28 H3         -0.5459    1.8868   -0.8726 H         1 <0>         0.0560
     29 H4         -0.5289    1.8773    0.9072 H         1 <0>         0.0588
     30 H5         -1.0205   -0.3814    0.0098 H         1 <0>         0.0764
     31 H6          1.7408   -0.1202   -1.2645 H         1 <0>         0.0540
     32 H7          0.7330   -1.5874   -1.2628 H         1 <0>         0.0549
     33 H8          0.1910   -0.1364   -2.1398 H         1 <0>         0.0560
     34 H9          0.8346   -1.5958    1.1912 H         1 <0>         0.0733
     35 H10         1.7350   -0.0630    1.2804 H         1 <0>         0.0835
     36 H11        -0.2110    0.9531    2.5022 H         1 <0>         0.1145
     37 H12         1.6276    1.3165    4.3233 H         1 <0>         0.1319
     38 H13         2.7703    0.2767    6.2612 H         1 <0>         0.1316
     39 H14         2.4061   -2.2581    6.6158 H         1 <0>         0.1832
     40 H15        -1.4324   -1.6550    2.0189 H         1 <0>         0.4031
     41 H16        -2.9709   -2.6241    1.9528 H         1 <0>         0.1216
     42 H17        -5.0966   -3.8137    1.9380 H         1 <0>         0.1358
     43 H18        -4.6298    0.4592    4.4252 H         1 <0>         0.1465
@<TRIPOS>BOND
     1    1    2 1
     2    1   27 1
     3    1   28 1
     4    1   29 1
     5    2    3 1
     6    2    4 1
     7    2   30 1
     8    3   31 1
     9    3   32 1
    10    3   33 1
    11    4    5 1
    12    4   34 1
    13    4   35 1
    14    5    6 1
    15    5   11 1
    16    5   36 1
    17    6   10 1
    18    6    7 2
    19    7    8 1
    20    7   37 1
    21    8    9 2
    22    8   38 1
    23    9   10 1
    24    9   39 1
    25   11   12 am
    26   11   40 1
    27   12   13 2
    28   12   14 1
    29   14   19 ar
    30   14   15 ar
    31   15   16 ar
    32   15   41 1
    33   16   17 ar
    34   16   42 1
    35   17   24 2
    36   17   18 ar
    37   18   19 ar
    38   18   20 2
    39   19   43 1
    40   20   21 1
    41   21   22 1
    42   21   26 2
    43   22   23 1
    44   22   24 1
    45   24   25 1
@<TRIPOS>MOLECULE
ZINC20589264
   30    31     0     0     0
SMALL
USER_CHARGES
4-(4-bromo-3-methyl-phenyl)-5-propyl-1,2,4-triazole-3-thiol
@<TRIPOS>ATOM
      1 C1         -0.0503    1.1039   -2.4934 C.3       1 <0>        -0.1492
      2 C2         -0.7625    1.5947   -1.2313 C.3       1 <0>        -0.1188
      3 C3         -0.0165    1.0884    0.0048 C.3       1 <0>        -0.0208
      4 C4         -0.7181    1.5718    1.2479 C.2       1 <0>         0.1299
      5 N1         -0.4815    2.6833    1.8856 N.2       1 <0>        -0.2912
      6 N2         -1.2656    2.7879    2.8985 N.2       1 <0>        -0.3435
      7 C5         -2.0474    1.7355    2.9695 C.2       1 <0>         0.3779
      8 N3         -1.7227    0.9244    1.9170 N.pl3     1 <0>        -0.4615
      9 C6         -2.2980   -0.3128    1.5913 C.ar      1 <0>         0.1826
     10 C7         -1.5348   -1.4711    1.6482 C.ar      1 <0>        -0.1164
     11 C8         -2.1035   -2.6878    1.3271 C.ar      1 <0>        -0.0783
     12 C9         -3.4328   -2.7531    0.9482 C.ar      1 <0>        -0.0942
     13 C10        -4.1953   -1.6003    0.8903 C.ar      1 <0>        -0.0457
     14 C11        -3.6328   -0.3817    1.2170 C.ar      1 <0>        -0.0799
     15 C12        -5.6424   -1.6748    0.4764 C.3       1 <0>        -0.1190
     16 Br1        -4.2082   -4.4208    0.5085 Br        1 <0>        -0.0559
     17 S1         -3.2812    1.4268    4.1890 S.3       1 <0>        -0.7990
     18 H1         -0.5866    1.4678   -3.3821 H         1 <0>         0.0541
     19 H2         -0.0330    0.0040   -2.5003 H         1 <0>         0.0532
     20 H3          0.9808    1.4869   -2.5049 H         1 <0>         0.0561
     21 H4         -0.7798    2.6945   -1.2243 H         1 <0>         0.0689
     22 H5         -1.7936    1.2117   -1.2198 H         1 <0>         0.0584
     23 H6          0.0008   -0.0114   -0.0023 H         1 <0>         0.0721
     24 H7          1.0146    1.4715   -0.0067 H         1 <0>         0.0902
     25 H8         -0.4972   -1.4206    1.9438 H         1 <0>         0.1319
     26 H9         -1.5101   -3.5892    1.3712 H         1 <0>         0.1363
     27 H10        -4.2297    0.5174    1.1762 H         1 <0>         0.1356
     28 H11        -6.0800   -0.6657    0.4899 H         1 <0>         0.0723
     29 H12        -6.1912   -2.3218    1.1765 H         1 <0>         0.0785
     30 H13        -5.7123   -2.0913   -0.5393 H         1 <0>         0.0754
@<TRIPOS>BOND
     1    1    2 1
     2    1   18 1
     3    1   19 1
     4    1   20 1
     5    2    3 1
     6    2   21 1
     7    2   22 1
     8    3   23 1
     9    3   24 1
    10    3    4 1
    11    4    8 1
    12    4    5 2
    13    5    6 1
    14    6    7 2
    15    7   17 1
    16    7    8 1
    17    8    9 1
    18    9   14 ar
    19    9   10 ar
    20   10   11 ar
    21   10   25 1
    22   11   12 ar
    23   11   26 1
    24   12   13 ar
    25   12   16 1
    26   13   14 ar
    27   13   15 1
    28   14   27 1
    29   15   28 1
    30   15   29 1
    31   15   30 1
@<TRIPOS>MOLECULE
ZINC06533846
   38    41     0     0     0
SMALL
USER_CHARGES

@<TRIPOS>ATOM
      1 C1         -0.0184    1.5028    0.0103 C.3       1 <0>        -0.1113
      2 C2          0.0021   -0.0041    0.0020 C.ar      1 <0>        -0.0915
      3 C3          0.0057   -0.6887   -1.1989 C.ar      1 <0>        -0.1326
      4 C4          0.0245   -2.0709   -1.2065 C.ar      1 <0>        -0.1126
      5 C5          0.0400   -2.7685   -0.0132 C.ar      1 <0>        -0.0677
      6 C6          0.0373   -2.0839    1.1877 C.ar      1 <0>        -0.0718
      7 C7          0.0229   -0.7016    1.1953 C.ar      1 <0>        -0.1169
      8 C8          0.0595   -4.2753   -0.0215 C.3       1 <0>        -0.0983
      9 H1          0.4852   -4.7351   -0.9134 H         1 <0>         0.1152
     10 C9          0.2824   -4.9863    1.3148 C.3       1 <0>        -0.1493
     11 C10        -1.1018   -5.0006    0.6614 C.3       1 <0>        -0.0555
     12 H2         -1.4398   -5.9377    0.2190 H         1 <0>         0.1157
     13 C11        -2.1775   -4.1534    1.2908 C.2       1 <0>         0.1593
     14 N1         -2.0140   -3.2795    2.2435 N.2       1 <0>        -0.2808
     15 N2         -3.1391   -2.7355    2.5431 N.2       1 <0>        -0.3401
     16 C12        -4.0922   -3.2362    1.7916 C.2       1 <0>         0.3809
     17 S1         -5.7993   -2.8025    1.8366 S.3       1 <0>        -0.8004
     18 N3         -3.5076   -4.1548    0.9636 N.pl3     1 <0>        -0.4566
     19 C13        -4.1390   -4.9372   -0.0147 C.ar      1 <0>         0.1660
     20 C14        -3.8211   -4.7645   -1.3549 C.ar      1 <0>        -0.0981
     21 C15        -4.4437   -5.5363   -2.3163 C.ar      1 <0>        -0.1030
     22 C16        -5.3842   -6.4809   -1.9444 C.ar      1 <0>        -0.0347
     23 C17        -5.7027   -6.6548   -0.6091 C.ar      1 <0>        -0.0995
     24 C18        -5.0785   -5.8893    0.3563 C.ar      1 <0>        -0.0736
     25 Cl1        -6.1660   -7.4487   -3.1551 Cl        1 <0>        -0.0769
     26 H3          1.0042    1.8801    0.0026 H         1 <0>         0.0648
     27 H4         -0.5455    1.8639   -0.8728 H         1 <0>         0.0614
     28 H5         -0.5286    1.8543    0.9071 H         1 <0>         0.0648
     29 H6         -0.0064   -0.1436   -2.1312 H         1 <0>         0.1140
     30 H7          0.0266   -2.6057   -2.1448 H         1 <0>         0.1140
     31 H8          0.0491   -2.6289    2.1200 H         1 <0>         0.1409
     32 H9          0.0245   -0.1667    2.1335 H         1 <0>         0.1173
     33 H10         0.8545   -5.9140    1.3020 H         1 <0>         0.1025
     34 H11         0.4150   -4.3642    2.1999 H         1 <0>         0.1112
     35 H12        -3.0877   -4.0269   -1.6456 H         1 <0>         0.1324
     36 H13        -4.1967   -5.4022   -3.3590 H         1 <0>         0.1363
     37 H14        -6.4370   -7.3926   -0.3212 H         1 <0>         0.1375
     38 H15        -5.3244   -6.0283    1.3987 H         1 <0>         0.1367
@<TRIPOS>BOND
     1    1    2 1
     2    1   26 1
     3    1   27 1
     4    1   28 1
     5    2    7 ar
     6    2    3 ar
     7    3    4 ar
     8    3   29 1
     9    4    5 ar
    10    4   30 1
    11    5    6 ar
    12    5    8 1
    13    6    7 ar
    14    6   31 1
    15    7   32 1
    16    8    9 1
    17    8   11 1
    18    8   10 1
    19   10   11 1
    20   10   33 1
    21   10   34 1
    22   11   12 1
    23   11   13 1
    24   13   18 1
    25   13   14 2
    26   14   15 1
    27   15   16 2
    28   16   17 1
    29   16   18 1
    30   18   19 1
    31   19   24 ar
    32   19   20 ar
    33   20   21 ar
    34   20   35 1
    35   21   22 ar
    36   21   36 1
    37   22   23 ar
    38   22   25 1
    39   23   24 ar
    40   23   37 1
    41   24   38 1
@<TRIPOS>MOLECULE
ZINC41977187
   34    35     0     0     0
SMALL
USER_CHARGES

@<TRIPOS>ATOM
      1 C1          0.0782    1.5011   -0.0095 C.3       1 <0>        -0.1117
      2 C2          0.0746   -0.0059   -0.0126 C.ar      1 <0>        -0.0748
      3 C3          1.2715   -0.6987   -0.0034 C.ar      1 <0>        -0.1446
      4 C4          1.2720   -2.0795   -0.0067 C.ar      1 <0>        -0.0754
      5 C5          0.0678   -2.7731   -0.0188 C.ar      1 <0>        -0.1002
      6 C6         -1.1330   -2.0736   -0.0276 C.ar      1 <0>        -0.0250
      7 C7         -1.1258   -0.6928   -0.0190 C.ar      1 <0>        -0.1407
      8 S1          0.0635   -4.5351   -0.0236 S.3       1 <0>        -0.1424
      9 C8          0.2300   -4.9791    1.7273 C.3       1 <0>        -0.0706
     10 C9          1.4619   -4.2870    2.3141 C.3       1 <0>        -0.1239
     11 C10         0.3849   -6.4728    1.8542 C.ar      1 <0>        -0.0430
     12 C11         0.3886   -7.2658    0.7223 C.ar      1 <0>        -0.1226
     13 C12         0.5314   -8.6377    0.8388 C.ar      1 <0>         0.0782
     14 C13         0.6704   -9.2156    2.0895 C.ar      1 <0>        -0.1357
     15 C14         0.6667   -8.4229    3.2210 C.ar      1 <0>        -0.1386
     16 C15         0.5291   -7.0499    3.1041 C.ar      1 <0>         0.1245
     17 F1          0.5306   -6.2743    4.2102 F         1 <0>        -0.1004
     18 F2          0.5346   -9.4130   -0.2676 F         1 <0>        -0.1417
     19 C16        -0.9999   -4.5361    2.4770 C.2       1 <0>         0.5064
     20 O1         -1.9049   -3.9731    1.8850 O.co2     1 <0>        -0.6616
     21 O2         -1.0900   -4.7408    3.6755 O.co2     1 <0>        -0.6646
     22 H1          0.0749    1.8623    1.0189 H         1 <0>         0.0682
     23 H2          0.9712    1.8633   -0.5189 H         1 <0>         0.0627
     24 H3         -0.8087    1.8676   -0.5263 H         1 <0>         0.0640
     25 H4          2.2070   -0.1590    0.0060 H         1 <0>         0.1180
     26 H5          2.2071   -2.6199   -0.0002 H         1 <0>         0.1227
     27 H6         -2.0707   -2.6093   -0.0371 H         1 <0>         0.1419
     28 H7         -2.0586   -0.1486   -0.0218 H         1 <0>         0.1196
     29 H8          1.3109   -3.2075    2.3050 H         1 <0>         0.0571
     30 H9          1.6140   -4.6240    3.3394 H         1 <0>         0.0732
     31 H10         2.3382   -4.5364    1.7158 H         1 <0>         0.0526
     32 H11         0.2798   -6.8151   -0.2532 H         1 <0>         0.1478
     33 H12         0.7814  -10.2860    2.1804 H         1 <0>         0.1389
     34 H13         0.7747   -8.8736    4.1965 H         1 <0>         0.1419
@<TRIPOS>BOND
     1    1    2 1
     2    1   22 1
     3    1   23 1
     4    1   24 1
     5    2    7 ar
     6    2    3 ar
     7    3    4 ar
     8    3   25 1
     9    4    5 ar
    10    4   26 1
    11    5    6 ar
    12    5    8 1
    13    6    7 ar
    14    6   27 1
    15    7   28 1
    16    8    9 1
    17    9   10 1
    18    9   11 1
    19    9   19 1
    20   10   29 1
    21   10   30 1
    22   10   31 1
    23   11   16 ar
    24   11   12 ar
    25   12   13 ar
    26   12   32 1
    27   13   14 ar
    28   13   18 1
    29   14   15 ar
    30   14   33 1
    31   15   16 ar
    32   15   34 1
    33   16   17 1
    34   19   20 2
    35   19   21 1
@<TRIPOS>MOLECULE
ZINC18097684
   38    40     0     0     0
SMALL
USER_CHARGES

@<TRIPOS>ATOM
      1 C1         -1.6482   -2.5164   -3.7570 C.3       1 <0>        -0.1025
      2 C2         -1.3154   -2.2076   -2.2960 C.3       1 <0>        -0.0864
      3 C3         -1.1339   -3.5175   -1.5264 C.3       1 <0>        -0.1037
      4 C4          0.0082   -4.3217   -2.1507 C.3       1 <0>        -0.0880
      5 C5         -0.3247   -4.6305   -3.6118 C.3       1 <0>        -0.1031
      6 C6         -0.5061   -3.3206   -4.3813 C.3       1 <0>        -0.0842
      7 C7          0.7874   -2.5062   -4.3140 C.3       1 <0>        -0.1475
      8 C8          1.1202   -2.1974   -2.8530 C.3       1 <0>         0.0700
      9 C9         -0.0219   -1.3932   -2.2287 C.3       1 <0>        -0.1008
     10 C10         1.3017   -3.5073   -2.0834 C.3       1 <0>        -0.1064
     11 C11         2.3943   -1.3953   -2.7867 C.2       1 <0>        -0.6028
     12 C12         3.1006   -1.1242   -3.9422 C.2       1 <0>         0.3850
     13 O1          4.3151   -1.2661   -3.9640 O.3       1 <0>        -0.5188
     14 C13         2.3747   -0.6538   -5.1762 C.3       1 <0>         0.4079
     15 F1          1.2441    0.0799   -4.8010 F         1 <0>        -0.1695
     16 F2          3.2247    0.1560   -5.9371 F         1 <0>        -0.1884
     17 F3          1.9812   -1.7605   -5.9362 F         1 <0>        -0.1830
     18 C14         2.8556   -0.9311   -1.5704 C.2       1 <0>         0.4445
     19 O2          2.8946    0.2712   -1.3496 O.2       1 <0>        -0.4659
     20 C15         3.3109   -1.9061   -0.5154 C.3       1 <0>         0.3983
     21 F4          4.5108   -1.4577    0.0472 F         1 <0>        -0.1876
     22 F5          2.3353   -2.0026    0.4826 F         1 <0>        -0.1911
     23 F6          3.5094   -3.1631   -1.0966 F         1 <0>        -0.1651
     24 H1         -2.5697   -3.0966   -3.8050 H         1 <0>         0.0507
     25 H2         -1.7775   -1.5832   -4.3053 H         1 <0>         0.0575
     26 H3         -2.1290   -1.6346   -1.8512 H         1 <0>         0.0584
     27 H4         -0.8968   -3.2975   -0.4855 H         1 <0>         0.0563
     28 H5         -2.0554   -4.0977   -1.5743 H         1 <0>         0.0512
     29 H6          0.1375   -5.2549   -1.6025 H         1 <0>         0.0585
     30 H7          0.4890   -5.2034   -4.0565 H         1 <0>         0.0571
     31 H8         -1.2462   -5.2107   -3.6597 H         1 <0>         0.0501
     32 H9         -0.7432   -3.5406   -5.4222 H         1 <0>         0.0592
     33 H10         1.6010   -3.0792   -4.7588 H         1 <0>         0.0729
     34 H11         0.6581   -1.5730   -4.8623 H         1 <0>         0.0872
     35 H12        -0.1511   -0.4600   -2.7769 H         1 <0>         0.0625
     36 H13         0.2153   -1.1732   -1.1878 H         1 <0>         0.0477
     37 H14         1.5388   -3.2873   -1.0425 H         1 <0>         0.0557
     38 H15         2.1153   -4.0803   -2.5282 H         1 <0>         0.0641
@<TRIPOS>BOND
     1    1    6 1
     2    1    2 1
     3    1   24 1
     4    1   25 1
     5    2    9 1
     6    2    3 1
     7    2   26 1
     8    3    4 1
     9    3   27 1
    10    3   28 1
    11    4   10 1
    12    4    5 1
    13    4   29 1
    14    5    6 1
    15    5   30 1
    16    5   31 1
    17    6    7 1
    18    6   32 1
    19    7    8 1
    20    7   33 1
    21    7   34 1
    22    8    9 1
    23    8   10 1
    24    8   11 1
    25    9   35 1
    26    9   36 1
    27   10   37 1
    28   10   38 1
    29   11   12 2
    30   11   18 1
    31   12   13 1
    32   12   14 1
    33   14   15 1
    34   14   16 1
    35   14   17 1
    36   18   19 2
    37   18   20 1
    38   20   21 1
    39   20   22 1
    40   20   23 1
@<TRIPOS>MOLECULE
ZINC62710809
   33    34     0     0     0
SMALL
USER_CHARGES

@<TRIPOS>ATOM
      1 C1         -0.9442   -2.2341    1.9320 C.ar      1 <0>        -0.1160
      2 C2          0.0134   -2.6397    2.8425 C.ar      1 <0>        -0.0993
      3 C3          0.8601   -3.6891    2.5341 C.ar      1 <0>        -0.0958
      4 C4          0.7480   -4.3323    1.3146 C.ar      1 <0>        -0.0902
      5 C5         -0.2099   -3.9260    0.4048 C.ar      1 <0>        -0.0771
      6 C6         -1.0559   -2.8772    0.7134 C.ar      1 <0>        -0.0430
      7 C7         -2.1002   -2.4346   -0.2789 C.3       1 <0>        -0.0221
      8 H1         -2.8671   -1.8659    0.2468 H         1 <0>         0.0619
      9 C8         -2.7337   -3.6526   -0.8948 C.3       1 <0>        -0.1170
     10 C9         -4.2236   -3.3508   -1.1560 C.3       1 <0>        -0.1123
     11 C10        -4.4278   -2.5745   -2.3701 C.3       1 <0>        -0.1154
     12 C11        -3.7489   -1.1911   -2.3045 C.3       1 <0>        -0.1148
     13 C12        -2.2842   -1.3626   -2.6038 C.3       1 <0>        -0.1020
     14 C13        -1.4358   -1.5235   -1.3288 C.3       1 <0>        -0.1475
     15 H2         -1.2754   -0.5392   -0.8889 H         1 <0>         0.0534
     16 C14        -0.0986   -2.1087   -1.7036 C.2       1 <0>         0.5027
     17 O1         -0.0430   -3.0844   -2.4326 O.co2     1 <0>        -0.6971
     18 O2          0.9276   -1.6065   -1.2779 O.co2     1 <0>        -0.6961
     19 Br1         2.1708   -4.2441    3.7791 Br        1 <0>        -0.0769
     20 H3         -1.6083   -1.4176    2.1745 H         1 <0>         0.1217
     21 H4          0.1007   -2.1370    3.7944 H         1 <0>         0.1228
     22 H5          1.4091   -5.1515    1.0733 H         1 <0>         0.1240
     23 H6         -0.2975   -4.4281   -0.5474 H         1 <0>         0.1431
     24 H7         -2.2371   -3.8873   -1.8362 H         1 <0>         0.0920
     25 H8         -2.6456   -4.4967   -0.2107 H         1 <0>         0.0562
     26 H9         -4.7644   -4.2930   -1.2444 H         1 <0>         0.0525
     27 H10        -4.6246   -2.7938   -0.3093 H         1 <0>         0.0526
     28 H11        -4.0198   -3.1281   -3.2158 H         1 <0>         0.0610
     29 H12        -5.4978   -2.4357   -2.5245 H         1 <0>         0.0485
     30 H13        -4.1983   -0.5273   -3.0431 H         1 <0>         0.0530
     31 H14        -3.8718   -0.7699   -1.3067 H         1 <0>         0.0585
     32 H15        -2.1529   -2.2472   -3.2269 H         1 <0>         0.0731
     33 H16        -1.9324   -0.4903   -3.1546 H         1 <0>         0.0455
@<TRIPOS>BOND
     1    1    6 ar
     2    1    2 ar
     3    1   20 1
     4    2    3 ar
     5    2   21 1
     6    3    4 ar
     7    3   19 1
     8    4    5 ar
     9    4   22 1
    10    5    6 ar
    11    5   23 1
    12    6    7 1
    13    7    8 1
    14    7   14 1
    15    7    9 1
    16    9   10 1
    17    9   24 1
    18    9   25 1
    19   10   11 1
    20   10   26 1
    21   10   27 1
    22   11   12 1
    23   11   28 1
    24   11   29 1
    25   12   13 1
    26   12   30 1
    27   12   31 1
    28   13   14 1
    29   13   32 1
    30   13   33 1
    31   14   15 1
    32   14   16 1
    33   16   17 2
    34   16   18 1
@<TRIPOS>MOLECULE
ZINC08700457
   36    37     0     0     0
SMALL
USER_CHARGES
1-(4-bromophenyl)-4-methyl-5-tert-butyl-pyrazole-3-carboxylic acid
@<TRIPOS>ATOM
      1 C1         -2.0848    0.7517    2.5509 C.3       1 <0>        -0.0884
      2 C2         -2.2638    1.7075    1.3995 C.2       1 <0>        -0.1543
      3 C3         -1.4772    1.7906    0.2253 C.2       1 <0>         0.0215
      4 N1         -1.9849    2.7580   -0.5139 N.2       1 <0>        -0.2505
      5 N2         -2.9962    3.2832    0.0796 N.pl3     1 <0>        -0.2779
      6 C4         -3.2083    2.6684    1.2725 C.2       1 <0>         0.0042
      7 C5         -4.2951    2.9919    2.2652 C.3       1 <0>         0.0114
      8 C6         -5.6621    2.8002    1.6054 C.3       1 <0>        -0.1495
      9 C7         -4.1765    2.0601    3.4729 C.3       1 <0>        -0.1475
     10 C8         -4.1499    4.4439    2.7252 C.3       1 <0>        -0.1462
     11 C9         -3.7680    4.3360   -0.4294 C.ar      1 <0>         0.1706
     12 C10        -4.8883    4.0659   -1.2041 C.ar      1 <0>        -0.0929
     13 C11        -5.6495    5.1054   -1.7014 C.ar      1 <0>        -0.0830
     14 C12        -5.2914    6.4153   -1.4358 C.ar      1 <0>        -0.0831
     15 C13        -4.1728    6.6874   -0.6682 C.ar      1 <0>        -0.0827
     16 C14        -3.4107    5.6515   -0.1649 C.ar      1 <0>        -0.0923
     17 Br1        -6.3323    7.8363   -2.1239 Br        1 <0>        -0.0471
     18 C15        -0.3129    0.9494   -0.1110 C.2       1 <0>         0.5310
     19 O1          0.0564    0.0866    0.6605 O.co2     1 <0>        -0.6216
     20 H1         -1.5236    1.2421    3.3463 H         1 <0>         0.0571
     21 H2         -3.0620    0.4504    2.9282 H         1 <0>         0.0678
     22 H3         -1.5394   -0.1286    2.2109 H         1 <0>         0.0850
     23 H4         -5.7717    1.7621    1.2915 H         1 <0>         0.0584
     24 H5         -6.4479    3.0490    2.3187 H         1 <0>         0.0600
     25 H6         -5.7406    3.4529    0.7360 H         1 <0>         0.0575
     26 H7         -3.1452    2.0519    3.8257 H         1 <0>         0.0759
     27 H8         -4.8304    2.4135    4.2701 H         1 <0>         0.0544
     28 H9         -4.4694    1.0509    3.1833 H         1 <0>         0.0670
     29 H10        -4.3804    5.1125    1.8958 H         1 <0>         0.0557
     30 H11        -4.8387    4.6349    3.5481 H         1 <0>         0.0606
     31 H12        -3.1272    4.6186    3.0594 H         1 <0>         0.0580
     32 H13        -5.1660    3.0437   -1.4148 H         1 <0>         0.1399
     33 H14        -6.5228    4.8958   -2.3011 H         1 <0>         0.1419
     34 H15        -3.8953    7.7107   -0.4627 H         1 <0>         0.1419
     35 H16        -2.5373    5.8644    0.4337 H         1 <0>         0.1396
     36 O2          0.3377    1.1344   -1.2764 O.co2     1 <0>        -0.7425
@<TRIPOS>BOND
     1    1    2 1
     2    1   20 1
     3    1   21 1
     4    1   22 1
     5    2    6 2
     6    2    3 1
     7    3    4 2
     8    3   18 1
     9    4    5 1
    10    5    6 1
    11    5   11 1
    12    6    7 1
    13    7    8 1
    14    7    9 1
    15    7   10 1
    16    8   23 1
    17    8   24 1
    18    8   25 1
    19    9   26 1
    20    9   27 1
    21    9   28 1
    22   10   29 1
    23   10   30 1
    24   10   31 1
    25   11   16 ar
    26   11   12 ar
    27   12   13 ar
    28   12   32 1
    29   13   14 ar
    30   13   33 1
    31   14   15 ar
    32   14   17 1
    33   15   16 ar
    34   15   34 1
    35   16   35 1
    36   18   19 2
    37   18   36 1
@<TRIPOS>MOLECULE
ZINC20591115
   25    27     0     0     0
SMALL
USER_CHARGES
5-(2-thienyl)-4-(2,4,5-trichlorophenyl)-1,2,4-triazole-3-thiol
@<TRIPOS>ATOM
      1 C1          1.4087    4.0255    4.8719 C.2       1 <0>        -0.1440
      2 C2          1.4605    4.6407    3.6413 C.2       1 <0>        -0.1390
      3 C3          1.1781    3.8988    2.5220 C.2       1 <0>        -0.0431
      4 S1          0.8452    2.2903    3.2219 S.3       1 <0>         0.0491
      5 C4          1.0928    2.7064    4.9402 C.2       1 <0>        -0.1871
      6 C5          1.1605    4.3181    1.1117 C.2       1 <0>         0.1947
      7 N1          1.1423    5.5542    0.6630 N.2       1 <0>        -0.2474
      8 N2          1.1306    5.5555   -0.6218 N.2       1 <0>        -0.3310
      9 C6          1.1462    4.3234   -1.0770 C.2       1 <0>         0.3983
     10 N3          1.1600    3.4895    0.0093 N.pl3     1 <0>        -0.4611
     11 C7          1.1765    2.0872    0.0020 C.ar      1 <0>         0.1823
     12 C8         -0.0167    1.3780    0.0096 C.ar      1 <0>        -0.0633
     13 C9          0.0021   -0.0041    0.0020 C.ar      1 <0>        -0.0182
     14 C10         1.2103   -0.6813   -0.0132 C.ar      1 <0>        -0.0123
     15 C11         2.4006    0.0234   -0.0207 C.ar      1 <0>        -0.0873
     16 C12         2.3869    1.4057   -0.0127 C.ar      1 <0>         0.0012
     17 Cl1         3.8812    2.2893   -0.0211 Cl        1 <0>        -0.0261
     18 Cl2         1.2307   -2.4172   -0.0232 Cl        1 <0>        -0.0373
     19 Cl3        -1.4898   -0.8918    0.0109 Cl        1 <0>        -0.0364
     20 S2          1.1456    3.8345   -2.7698 S.3       1 <0>        -0.7676
     21 H1          1.6214    4.5839    5.7716 H         1 <0>         0.1355
     22 H2          1.7147    5.6872    3.5589 H         1 <0>         0.1423
     23 H3          1.0124    2.0719    5.8104 H         1 <0>         0.1850
     24 H4         -0.9590    1.9056    0.0170 H         1 <0>         0.1536
     25 H5          3.3414   -0.5068   -0.0326 H         1 <0>         0.1594
@<TRIPOS>BOND
     1    1    5 2
     2    1    2 1
     3    1   21 1
     4    2    3 2
     5    2   22 1
     6    3    4 1
     7    3    6 1
     8    4    5 1
     9    5   23 1
    10    6   10 1
    11    6    7 2
    12    7    8 1
    13    8    9 2
    14    9   20 1
    15    9   10 1
    16   10   11 1
    17   11   16 ar
    18   11   12 ar
    19   12   13 ar
    20   12   24 1
    21   13   14 ar
    22   13   19 1
    23   14   15 ar
    24   14   18 1
    25   15   16 ar
    26   15   25 1
    27   16   17 1
@<TRIPOS>MOLECULE
ZINC02699099
   39    42     0     0     0
SMALL
USER_CHARGES
2-(4-methoxyphenyl)-7-methyl-1,5-dihydrochromeno[2,3-d]pyrimidine-4-thione
@<TRIPOS>ATOM
      1 C1         -0.0129    1.0836    0.0086 C.3       1 <0>        -0.1098
      2 C2         -0.7182    1.5701    1.2484 C.ar      1 <0>        -0.1104
      3 C3          0.0014    1.8039    2.4059 C.ar      1 <0>        -0.0998
      4 C4         -0.6438    2.2493    3.5421 C.ar      1 <0>        -0.1279
      5 C5         -2.0167    2.4643    3.5245 C.ar      1 <0>         0.1123
      6 C6         -2.7346    2.2296    2.3630 C.ar      1 <0>        -0.1249
      7 C7         -2.0827    1.7878    1.2260 C.ar      1 <0>        -0.0868
      8 C8         -4.2216    2.4581    2.3257 C.3       1 <0>        -0.0055
      9 C9         -4.7756    2.5252    3.7214 C.ar      1 <0>        -0.2793
     10 C10        -3.9661    2.7401    4.7908 C.ar      1 <0>         0.3530
     11 N1         -4.5204    2.7924    6.0442 N.ar      1 <0>        -0.5753
     12 C11        -5.8646    2.6325    6.2088 C.ar      1 <0>         0.3814
     13 N2         -6.6565    2.4242    5.1795 N.ar      1 <0>        -0.5433
     14 C12        -6.1618    2.3628    3.9328 C.ar      1 <0>         0.3562
     15 S1         -7.2077    2.0895    2.6052 S.3       1 <0>        -0.7669
     16 C13        -6.4412    2.6942    7.5664 C.ar      1 <0>        -0.0614
     17 C14        -5.6124    2.9097    8.6703 C.ar      1 <0>        -0.0337
     18 C15        -6.1550    2.9729    9.9346 C.ar      1 <0>        -0.2217
     19 C16        -7.5236    2.8109   10.1143 C.ar      1 <0>         0.1334
     20 C17        -8.3506    2.5902    9.0195 C.ar      1 <0>        -0.1626
     21 C18        -7.8165    2.5318    7.7513 C.ar      1 <0>        -0.0295
     22 O1         -8.0537    2.8678   11.3627 O.3       1 <0>        -0.3183
     23 C19        -7.1469    3.0975   12.4428 C.3       1 <0>         0.0241
     24 O2         -2.6377    2.9020    4.6465 O.3       1 <0>        -0.2371
     25 H1          1.0609    0.9697    0.2185 H         1 <0>         0.0628
     26 H2         -0.1526    1.8130   -0.8028 H         1 <0>         0.0676
     27 H3         -0.4322    0.1129   -0.2947 H         1 <0>         0.0678
     28 H4          1.0683    1.6376    2.4212 H         1 <0>         0.1286
     29 H5         -0.0809    2.4313    4.4457 H         1 <0>         0.1320
     30 H6         -2.6419    1.6088    0.3196 H         1 <0>         0.1294
     31 H7         -4.4341    3.4060    1.8097 H         1 <0>         0.0842
     32 H8         -4.7064    1.6307    1.7869 H         1 <0>         0.1037
     33 H9         -4.5481    3.0314    8.5319 H         1 <0>         0.1393
     34 H10        -5.5157    3.1446   10.7880 H         1 <0>         0.1283
     35 H11        -9.4135    2.4648    9.1633 H         1 <0>         0.1328
     36 H12        -8.4600    2.3603    6.9010 H         1 <0>         0.1476
     37 H13        -7.7042    3.1202   13.3909 H         1 <0>         0.0980
     38 H14        -6.6363    4.0604   12.2944 H         1 <0>         0.0559
     39 H15        -6.4021    2.2886   12.4746 H         1 <0>         0.0559
@<TRIPOS>BOND
     1    1    2 1
     2    1   25 1
     3    1   26 1
     4    1   27 1
     5    2    7 ar
     6    2    3 ar
     7    3    4 ar
     8    3   28 1
     9    4    5 ar
    10    4   29 1
    11    5    6 ar
    12    5   24 1
    13    6    7 ar
    14    6    8 1
    15    7   30 1
    16    8   31 1
    17    8   32 1
    18    8    9 1
    19    9   14 ar
    20    9   10 ar
    21   10   24 1
    22   10   11 ar
    23   11   12 ar
    24   12   13 ar
    25   12   16 1
    26   13   14 ar
    27   14   15 1
    28   16   21 ar
    29   16   17 ar
    30   17   18 ar
    31   17   33 1
    32   18   19 ar
    33   18   34 1
    34   19   20 ar
    35   19   22 1
    36   20   21 ar
    37   20   35 1
    38   21   36 1
    39   22   23 1
    40   23   37 1
    41   23   38 1
    42   23   39 1
@<TRIPOS>MOLECULE
ZINC40273319
   27    29     0     0     0
SMALL
USER_CHARGES

@<TRIPOS>ATOM
      1 C1          1.1849   -0.4202    0.0167 C.ar      1 <0>        -0.0889
      2 C2          2.2933    0.4025    0.0880 C.ar      1 <0>        -0.0901
      3 C3          2.1322    1.7689    0.2310 C.ar      1 <0>        -0.0880
      4 C4          0.8617    2.3113    0.3024 C.ar      1 <0>        -0.0911
      5 C5         -0.2461    1.4878    0.2310 C.ar      1 <0>        -0.0991
      6 C6         -0.0846    0.1224    0.0881 C.ar      1 <0>        -0.0665
      7 C7         -1.2928   -0.7750    0.0103 C.3       1 <0>         0.1016
      8 H1         -2.1950   -0.1658   -0.0436 H         1 <0>         0.1114
      9 C8         -1.3492   -1.6490    1.2366 C.ar      1 <0>        -0.1531
     10 C9         -0.3746   -2.6141    1.4397 C.ar      1 <0>        -0.0861
     11 C10        -0.4134   -3.4197    2.5564 C.ar      1 <0>        -0.1227
     12 C11        -1.4404   -3.2624    3.4879 C.ar      1 <0>         0.1104
     13 C12        -2.4245   -2.2848    3.2787 C.ar      1 <0>        -0.0427
     14 C13        -2.3674   -1.4794    2.1526 C.ar      1 <0>        -0.0535
     15 O1         -3.2721   -2.3667    4.3296 O.3       1 <0>        -0.2747
     16 C14        -2.8364   -3.3419    5.1451 C.2       1 <0>         0.5156
     17 O2         -3.4349   -3.7105    6.2998 O.3       1 <0>        -0.6433
     18 N1         -1.7510   -3.8826    4.6595 N.2       1 <0>        -0.6100
     19 Cl1        -1.1783   -1.8108   -1.4611 Cl        1 <0>        -0.1725
     20 Br1         3.6482    2.8948    0.3293 Br        1 <0>        -0.0567
     21 H2          1.3106   -1.4866   -0.0994 H         1 <0>         0.1385
     22 H3          3.2850   -0.0215    0.0326 H         1 <0>         0.1341
     23 H4          0.7354    3.3780    0.4143 H         1 <0>         0.1335
     24 H5         -1.2381    1.9113    0.2867 H         1 <0>         0.1343
     25 H6          0.4196   -2.7351    0.7178 H         1 <0>         0.1200
     26 H7          0.3478   -4.1703    2.7102 H         1 <0>         0.1219
     27 H8         -3.1208   -0.7229    1.9899 H         1 <0>         0.1180
@<TRIPOS>BOND
     1    1    6 ar
     2    1    2 ar
     3    1   21 1
     4    2    3 ar
     5    2   22 1
     6    3    4 ar
     7    3   20 1
     8    4    5 ar
     9    4   23 1
    10    5    6 ar
    11    5   24 1
    12    6    7 1
    13    7    8 1
    14    7    9 1
    15    7   19 1
    16    9   14 ar
    17    9   10 ar
    18   10   11 ar
    19   10   25 1
    20   11   12 ar
    21   11   26 1
    22   12   18 1
    23   12   13 ar
    24   13   14 ar
    25   13   15 1
    26   14   27 1
    27   15   16 1
    28   16   17 1
    29   16   18 2
@<TRIPOS>MOLECULE
ZINC05323872
   30    32     0     0     0
SMALL
USER_CHARGES

@<TRIPOS>ATOM
      1 C1         -0.3965    0.5195   -1.0836 C.ar      1 <0>        -0.1409
      2 C2          0.6735    1.3956   -1.0538 C.ar      1 <0>        -0.1196
      3 C3          1.9516    0.9210   -0.8402 C.ar      1 <0>        -0.1065
      4 C4          2.1631   -0.4441   -0.6537 C.ar      1 <0>         0.0375
      5 C5          1.0811   -1.3221   -0.6843 C.ar      1 <0>        -0.1246
      6 C6         -0.1926   -0.8362   -0.8992 C.ar      1 <0>        -0.1185
      7 C7          3.5342   -0.9603   -0.4242 C.2       1 <0>        -0.0302
      8 C8          3.9163   -2.0460    0.4082 C.2       1 <0>        -0.0927
      9 N1          5.2335   -2.1309    0.2923 N.2       1 <0>        -0.2942
     10 N2          5.6373   -1.2140   -0.5128 N.2       1 <0>        -0.1848
     11 N3          4.6563   -0.5115   -0.9547 N.2       1 <0>        -0.3392
     12 C9          3.0365   -2.8956    1.2257 C.2       1 <0>         0.3008
     13 N4          3.5430   -3.8599    1.9414 N.2       1 <0>        -0.5026
     14 C10         2.7415   -4.5787    2.7862 C.ar      1 <0>         0.1445
     15 C11         1.8680   -3.9201    3.6543 C.ar      1 <0>        -0.1523
     16 C12         1.0621   -4.6515    4.5034 C.ar      1 <0>        -0.0079
     17 C13         1.1183   -6.0354    4.4957 C.ar      1 <0>        -0.1324
     18 C14         1.9813   -6.6943    3.6389 C.ar      1 <0>        -0.0818
     19 C15         2.7890   -5.9755    2.7801 C.ar      1 <0>        -0.0441
     20 Cl1         3.8659   -6.8047    1.7000 Cl        1 <0>        -0.0488
     21 Cl2        -0.0240   -3.8349    5.5838 Cl        1 <0>        -0.0707
     22 H1         -1.3956    0.8959   -1.2471 H         1 <0>         0.1139
     23 H2          0.5085    2.4531   -1.1984 H         1 <0>         0.1164
     24 H3          2.7864    1.6058   -0.8178 H         1 <0>         0.1229
     25 H4          1.2392   -2.3808   -0.5408 H         1 <0>         0.1170
     26 H5         -1.0318   -1.5156   -0.9235 H         1 <0>         0.1165
     27 H6          1.9708   -2.7202    1.2328 H         1 <0>         0.1038
     28 H7          1.8235   -2.8410    3.6616 H         1 <0>         0.1390
     29 H8          0.4855   -6.6027    5.1621 H         1 <0>         0.1381
     30 H9          2.0202   -7.7736    3.6383 H         1 <0>         0.1414
@<TRIPOS>BOND
     1    1    6 ar
     2    1    2 ar
     3    1   22 1
     4    2    3 ar
     5    2   23 1
     6    3    4 ar
     7    3   24 1
     8    4    5 ar
     9    4    7 1
    10    5    6 ar
    11    5   25 1
    12    6   26 1
    13    7    8 1
    14    7   11 2
    15    8   12 1
    16    8    9 2
    17    9   10 1
    18   10   11 1
    19   12   13 2
    20   12   27 1
    21   13   14 1
    22   14   19 ar
    23   14   15 ar
    24   15   16 ar
    25   15   28 1
    26   16   17 ar
    27   16   21 1
    28   17   18 ar
    29   17   29 1
    30   18   19 ar
    31   18   30 1
    32   19   20 1
@<TRIPOS>MOLECULE
ZINC18181219
   51    55     0     0     0
SMALL
USER_CHARGES

@<TRIPOS>ATOM
      1 C1         -0.0184    1.5028    0.0103 C.3       1 <0>        -0.1145
      2 C2          0.0021   -0.0041    0.0020 C.ar      1 <0>        -0.0860
      3 C3          0.0057   -0.6888   -1.1991 C.ar      1 <0>        -0.1238
      4 C4          0.0245   -2.0707   -1.2067 C.ar      1 <0>        -0.1210
      5 C5          0.0400   -2.7685   -0.0132 C.ar      1 <0>        -0.1154
      6 C6          0.0373   -2.0840    1.1875 C.ar      1 <0>        -0.0616
      7 C7          0.0229   -0.7015    1.1951 C.ar      1 <0>        -0.0917
      8 C8          0.0538   -2.8445    2.4885 C.3       1 <0>         0.0964
      9 H1          0.0489   -2.1403    3.3204 H         1 <0>         0.0908
     10 C9         -1.1709   -3.7288    2.5702 C.2       1 <0>        -0.2594
     11 C10        -1.1045   -5.0657    2.4058 C.2       1 <0>         0.2136
     12 C11        -2.3527   -5.9157    2.4773 C.3       1 <0>        -0.0903
     13 C12        -3.3514   -5.2846    3.4488 C.3       1 <0>        -0.0522
     14 C13        -3.6790   -3.8721    2.9530 C.3       1 <0>        -0.1594
     15 C14        -2.4005   -3.0913    2.8295 C.2       1 <0>         0.4024
     16 O1         -2.4278   -1.8833    2.9566 O.2       1 <0>        -0.4588
     17 C15        -2.7340   -5.2101    4.8467 C.3       1 <0>        -0.1528
     18 C16        -4.6292   -6.1249    3.4929 C.3       1 <0>        -0.1419
     19 N1          0.0814   -5.7180    2.1713 N.pl3     1 <0>        -0.6152
     20 C17         1.2636   -5.0536    2.3982 C.2       1 <0>         0.2299
     21 C18         1.2952   -3.6923    2.5572 C.2       1 <0>        -0.2715
     22 C19         2.6258   -3.2724    2.7812 C.2       1 <0>         0.4457
     23 O2          2.9978   -2.1298    2.9665 O.2       1 <0>        -0.4209
     24 C20         3.4831   -4.4776    2.7496 C.ar      1 <0>        -0.1557
     25 C21         2.6274   -5.5802    2.5112 C.ar      1 <0>        -0.0596
     26 C22         3.1330   -6.8675    2.4244 C.ar      1 <0>        -0.0824
     27 C23         4.5135   -7.0184    2.5837 C.ar      1 <0>        -0.0987
     28 C24         5.3408   -5.9457    2.8166 C.ar      1 <0>        -0.1110
     29 C25         4.8455   -4.6428    2.9055 C.ar      1 <0>        -0.0427
     30 H2          1.0042    1.8801    0.0026 H         1 <0>         0.0696
     31 H3         -0.5455    1.8639   -0.8728 H         1 <0>         0.0648
     32 H4         -0.5286    1.8543    0.9071 H         1 <0>         0.0668
     33 H5         -0.0064   -0.1437   -2.1314 H         1 <0>         0.1187
     34 H6          0.0266   -2.6056   -2.1449 H         1 <0>         0.1175
     35 H7          0.0540   -3.8484   -0.0191 H         1 <0>         0.1080
     36 H8          0.0246   -0.1666    2.1333 H         1 <0>         0.1212
     37 H9         -2.8031   -5.9827    1.4869 H         1 <0>         0.1011
     38 H10        -2.0914   -6.9154    2.8244 H         1 <0>         0.0917
     39 H11        -4.1666   -3.9306    1.9799 H         1 <0>         0.1015
     40 H12        -4.3403   -3.3792    3.6657 H         1 <0>         0.0991
     41 H13        -1.8297   -4.6024    4.8126 H         1 <0>         0.0597
     42 H14        -3.4484   -4.7599    5.5359 H         1 <0>         0.0646
     43 H15        -2.4840   -6.2148    5.1875 H         1 <0>         0.0610
     44 H16        -4.3890   -7.1343    3.8267 H         1 <0>         0.0617
     45 H17        -5.3381   -5.6720    4.1861 H         1 <0>         0.0653
     46 H18        -5.0709   -6.1669    2.4973 H         1 <0>         0.0613
     47 H19         0.0847   -6.6335    1.8507 H         1 <0>         0.4210
     48 H20         2.4896   -7.7156    2.2422 H         1 <0>         0.1386
     49 H21         4.9429   -8.0075    2.5225 H         1 <0>         0.1337
     50 H22         6.4010   -6.1153    2.9328 H         1 <0>         0.1351
     51 H23         5.4995   -3.8031    3.0884 H         1 <0>         0.1457
@<TRIPOS>BOND
     1    1    2 1
     2    1   30 1
     3    1   31 1
     4    1   32 1
     5    2    7 ar
     6    2    3 ar
     7    3    4 ar
     8    3   33 1
     9    4    5 ar
    10    4   34 1
    11    5    6 ar
    12    5   35 1
    13    6    7 ar
    14    6    8 1
    15    7   36 1
    16    8    9 1
    17    8   21 1
    18    8   10 1
    19   10   15 1
    20   10   11 2
    21   11   12 1
    22   11   19 1
    23   12   13 1
    24   12   37 1
    25   12   38 1
    26   13   14 1
    27   13   17 1
    28   13   18 1
    29   14   15 1
    30   14   39 1
    31   14   40 1
    32   15   16 2
    33   17   41 1
    34   17   42 1
    35   17   43 1
    36   18   44 1
    37   18   45 1
    38   18   46 1
    39   19   20 1
    40   19   47 1
    41   20   25 1
    42   20   21 2
    43   21   22 1
    44   22   23 2
    45   22   24 1
    46   24   29 ar
    47   24   25 ar
    48   25   26 ar
    49   26   27 ar
    50   26   48 1
    51   27   28 ar
    52   27   49 1
    53   28   29 ar
    54   28   50 1
    55   29   51 1
@<TRIPOS>MOLECULE
ZINC35634624
   33    34     0     0     0
SMALL
USER_CHARGES

@<TRIPOS>ATOM
      1 C1         -0.0187    1.5258    0.0104 C.3       1 <0>        -0.1814
      2 C2          0.0021   -0.0041    0.0020 C.3       1 <0>         0.1446
      3 H1          0.5123   -0.3556   -0.8948 H         1 <0>         0.0680
      4 C3          0.7309   -0.5033    1.2229 C.ar      1 <0>        -0.1144
      5 C4          0.0532   -0.6565    2.4182 C.ar      1 <0>        -0.0542
      6 C5          0.7216   -1.1143    3.5379 C.ar      1 <0>        -0.1485
      7 C6          2.0680   -1.4196    3.4626 C.ar      1 <0>        -0.0206
      8 C7          2.7454   -1.2673    2.2675 C.ar      1 <0>        -0.6155
      9 C8          2.0757   -0.8134    1.1463 C.ar      1 <0>        -0.0138
     10 S1          4.4613   -1.6558    2.1717 S.o2      1 <0>         2.6064
     11 O1          4.9864   -0.9097    1.0822 O.2       1 <0>        -1.0244
     12 O2          4.9774   -1.5436    3.4909 O.2       1 <0>        -1.0236
     13 N1          4.5789   -3.2533    1.7517 N.2       1 <0>        -1.0786
     14 C9          5.8350   -3.8450    1.6007 C.ar      1 <0>         0.3263
     15 C10         6.9861   -3.0960    1.8080 C.ar      1 <0>        -0.3086
     16 C11         8.2292   -3.6841    1.6579 C.ar      1 <0>         0.1750
     17 C12         8.3264   -5.0185    1.3006 C.ar      1 <0>        -0.2951
     18 C13         7.1800   -5.7670    1.0929 C.ar      1 <0>         0.1597
     19 C14         5.9348   -5.1848    1.2485 C.ar      1 <0>        -0.2226
     20 F1          7.2778   -7.0684    0.7436 F         1 <0>        -0.1471
     21 F2          9.3492   -2.9560    1.8595 F         1 <0>        -0.1470
     22 O3         -1.3386   -0.4987    0.0122 O.3       1 <0>        -0.5632
     23 H2          1.0039    1.9031    0.0027 H         1 <0>         0.0703
     24 H3         -0.5459    1.8868   -0.8726 H         1 <0>         0.0609
     25 H4         -0.5289    1.8773    0.9072 H         1 <0>         0.0641
     26 H5         -0.9985   -0.4180    2.4770 H         1 <0>         0.1284
     27 H6          0.1924   -1.2333    4.4718 H         1 <0>         0.1280
     28 H7          2.5905   -1.7767    4.3377 H         1 <0>         0.1376
     29 H8          2.6041   -0.6980    0.2115 H         1 <0>         0.1365
     30 H9          6.9107   -2.0551    2.0860 H         1 <0>         0.1154
     31 H10         9.2977   -5.4759    1.1835 H         1 <0>         0.1277
     32 H11         5.0410   -5.7702    1.0911 H         1 <0>         0.1319
     33 H12        -1.8677   -0.2163   -0.7464 H         1 <0>         0.3777
@<TRIPOS>BOND
     1    1    2 1
     2    1   23 1
     3    1   24 1
     4    1   25 1
     5    2    3 1
     6    2    4 1
     7    2   22 1
     8    4    9 ar
     9    4    5 ar
    10    5    6 ar
    11    5   26 1
    12    6    7 ar
    13    6   27 1
    14    7    8 ar
    15    7   28 1
    16    8    9 ar
    17    8   10 1
    18    9   29 1
    19   10   11 2
    20   10   12 2
    21   10   13 1
    22   13   14 1
    23   14   19 ar
    24   14   15 ar
    25   15   16 ar
    26   15   30 1
    27   16   17 ar
    28   16   21 1
    29   17   18 ar
    30   17   31 1
    31   18   19 ar
    32   18   20 1
    33   19   32 1
    34   22   33 1
@<TRIPOS>MOLECULE
ZINC41037532
   46    47     0     0     0
SMALL
USER_CHARGES

@<TRIPOS>ATOM
      1 C1         -0.0187    1.5258    0.0104 C.3       1 <0>        -0.1517
      2 C2          0.0021   -0.0041    0.0020 C.3       1 <0>        -0.0759
      3 H1          0.5123   -0.3556   -0.8948 H         1 <0>         0.0601
      4 C3         -1.4333   -0.5336    0.0129 C.3       1 <0>        -0.1124
      5 C4         -2.1494   -0.0402    1.2717 C.3       1 <0>        -0.1164
      6 C5         -1.4095   -0.5471    2.5112 C.3       1 <0>        -0.1128
      7 C6          0.0259   -0.0175    2.5003 C.3       1 <0>        -0.1131
      8 C7          0.7421   -0.5109    1.2415 C.3       1 <0>         0.1173
      9 C8          2.1559    0.0107    1.2308 C.2       1 <0>         0.5025
     10 O1          2.3624    1.2123    1.2353 O.co2     1 <0>        -0.6949
     11 O2          3.0932   -0.7689    1.2177 O.co2     1 <0>        -0.6758
     12 N1          0.7619   -1.9757    1.2335 N.am      1 <0>        -0.7075
     13 C9          1.3642   -2.6470    2.2350 C.2       1 <0>         0.5187
     14 O3          1.8898   -2.0384    3.1429 O.2       1 <0>        -0.5185
     15 C10         1.3847   -4.1539    2.2267 C.3       1 <0>        -0.1356
     16 C11         2.1247   -4.6607    3.4663 C.3       1 <0>        -0.0651
     17 C12         3.5926   -4.2356    3.3932 C.3       1 <0>        -0.1209
     18 C13         4.3326   -4.7424    4.6328 C.3       1 <0>        -0.1163
     19 C14         4.2459   -6.2689    4.6898 C.3       1 <0>        -0.1188
     20 C15         2.7780   -6.6940    4.7629 C.3       1 <0>        -0.1163
     21 C16         2.0380   -6.1872    3.5233 C.3       1 <0>        -0.1142
     22 H2          1.0039    1.9031    0.0027 H         1 <0>         0.0982
     23 H3         -0.5459    1.8868   -0.8726 H         1 <0>         0.0322
     24 H4         -0.5289    1.8773    0.9072 H         1 <0>         0.0519
     25 H5         -1.9605   -0.1726   -0.8702 H         1 <0>         0.0548
     26 H6         -1.4185   -1.6235    0.0069 H         1 <0>         0.0531
     27 H7         -2.1642    1.0497    1.2777 H         1 <0>         0.0634
     28 H8         -3.1720   -0.4175    1.2794 H         1 <0>         0.0496
     29 H9         -1.9196   -0.1955    3.4080 H         1 <0>         0.0496
     30 H10        -1.3947   -1.6369    2.5052 H         1 <0>         0.0533
     31 H11         0.0111    1.0724    2.5063 H         1 <0>         0.0694
     32 H12         0.5531   -0.3786    3.3834 H         1 <0>         0.0740
     33 H13         0.3416   -2.4625    0.5073 H         1 <0>         0.3806
     34 H14         0.3621   -4.5312    2.2345 H         1 <0>         0.0780
     35 H15         1.8949   -4.5054    1.3299 H         1 <0>         0.0831
     36 H16         1.6678   -4.2372    4.3607 H         1 <0>         0.0733
     37 H17         4.0495   -4.6592    2.4988 H         1 <0>         0.0502
     38 H18         3.6543   -3.1481    3.3526 H         1 <0>         0.0959
     39 H19         5.3784   -4.4396    4.5808 H         1 <0>         0.0566
     40 H20         3.8757   -4.3189    5.5272 H         1 <0>         0.0585
     41 H21         4.7028   -6.6925    3.7954 H         1 <0>         0.0578
     42 H22         4.7731   -6.6300    5.5729 H         1 <0>         0.0538
     43 H23         2.7163   -7.7815    4.8035 H         1 <0>         0.0552
     44 H24         2.3211   -6.2705    5.6573 H         1 <0>         0.0594
     45 H25         0.9922   -6.4901    3.5754 H         1 <0>         0.0566
     46 H26         2.4949   -6.6107    2.6289 H         1 <0>         0.0593
@<TRIPOS>BOND
     1    1    2 1
     2    1   22 1
     3    1   23 1
     4    1   24 1
     5    2    3 1
     6    2    8 1
     7    2    4 1
     8    4    5 1
     9    4   25 1
    10    4   26 1
    11    5    6 1
    12    5   27 1
    13    5   28 1
    14    6    7 1
    15    6   29 1
    16    6   30 1
    17    7    8 1
    18    7   31 1
    19    7   32 1
    20    8    9 1
    21    8   12 1
    22    9   10 2
    23    9   11 1
    24   12   13 am
    25   12   33 1
    26   13   14 2
    27   13   15 1
    28   15   16 1
    29   15   34 1
    30   15   35 1
    31   16   21 1
    32   16   17 1
    33   16   36 1
    34   17   18 1
    35   17   37 1
    36   17   38 1
    37   18   19 1
    38   18   39 1
    39   18   40 1
    40   19   20 1
    41   19   41 1
    42   19   42 1
    43   20   21 1
    44   20   43 1
    45   20   44 1
    46   21   45 1
    47   21   46 1
@<TRIPOS>MOLECULE
ZINC41767966
   44    45     0     0     0
SMALL
USER_CHARGES

@<TRIPOS>ATOM
      1 C1          4.1442   -5.6805    4.0304 C.3       1 <0>        -0.0950
      2 C2          3.1276   -5.3215    2.9775 C.ar      1 <0>        -0.1580
      3 C3          3.2207   -5.8724    1.7125 C.ar      1 <0>        -0.0816
      4 C4          2.2909   -5.5458    0.7448 C.ar      1 <0>        -0.1335
      5 C5          1.2609   -4.6632    1.0430 C.ar      1 <0>         0.2699
      6 C6          1.1695   -4.1114    2.3154 C.ar      1 <0>        -0.1283
      7 C7          2.1007   -4.4464    3.2803 C.ar      1 <0>        -0.0741
      8 Cl1        -0.1158   -3.0077    2.6939 Cl        1 <0>        -0.0994
      9 N1          0.3188   -4.3304    0.0660 N.pl3     1 <0>        -0.7017
     10 C8          0.3735   -4.9682   -1.2518 C.3       1 <0>         0.1090
     11 C9         -0.7287   -4.3925   -2.1432 C.3       1 <0>        -0.0959
     12 C10        -2.0929   -4.6591   -1.5039 C.3       1 <0>        -0.0963
     13 H1         -2.1336   -4.1846   -0.5234 H         1 <0>         0.0676
     14 C11        -2.2977   -6.1674   -1.3494 C.3       1 <0>        -0.0968
     15 C12        -1.1955   -6.7431   -0.4580 C.3       1 <0>        -0.0616
     16 C13         0.1687   -6.4765   -1.0973 C.3       1 <0>        -0.1063
     17 C14        -1.2527   -6.0770    0.9183 C.3       1 <0>        -0.1422
     18 C15        -1.4003   -8.2514   -0.3035 C.3       1 <0>        -0.1372
     19 C16        -3.1951   -4.0834   -2.3953 C.3       1 <0>        -0.1442
     20 C17         1.7173   -4.7056   -1.8815 C.2       1 <0>         0.4888
     21 O1          2.5518   -4.0468   -1.2849 O.co2     1 <0>        -0.6708
     22 O2          1.9698   -5.1519   -2.9876 O.co2     1 <0>        -0.6938
     23 H2          3.8032   -6.5575    4.5807 H         1 <0>         0.0564
     24 H3          5.0995   -5.8997    3.5534 H         1 <0>         0.0581
     25 H4          4.2653   -4.8441    4.7188 H         1 <0>         0.0554
     26 H5          4.0218   -6.5586    1.4808 H         1 <0>         0.1142
     27 H6          2.3650   -5.9760   -0.2431 H         1 <0>         0.1376
     28 H7          2.0283   -4.0215    4.2705 H         1 <0>         0.1173
     29 H8         -0.3714   -3.6771    0.2603 H         1 <0>         0.3903
     30 H9         -0.5828   -3.3179   -2.2533 H         1 <0>         0.0574
     31 H10        -0.6879   -4.8670   -3.1237 H         1 <0>         0.0797
     32 H11        -3.2696   -6.3573   -0.8939 H         1 <0>         0.0542
     33 H12        -2.2570   -6.6419   -2.3298 H         1 <0>         0.0596
     34 H13         0.2095   -6.9510   -2.0777 H         1 <0>         0.0707
     35 H14         0.9540   -6.8866   -0.4622 H         1 <0>         0.0665
     36 H15        -2.1237   -6.4418    1.4626 H         1 <0>         0.0317
     37 H16        -0.3481   -6.3183    1.4765 H         1 <0>         0.0532
     38 H17        -1.3269   -4.9964    0.7961 H         1 <0>         0.0742
     39 H18        -1.3596   -8.7259   -1.2839 H         1 <0>         0.0507
     40 H19        -0.6151   -8.6615    0.3316 H         1 <0>         0.0517
     41 H20        -2.3722   -8.4413    0.1520 H         1 <0>         0.0478
     42 H21        -3.1544   -4.5579   -3.3757 H         1 <0>         0.0536
     43 H22        -4.1670   -4.2733   -1.9398 H         1 <0>         0.0494
     44 H23        -3.0492   -3.0088   -2.5054 H         1 <0>         0.0515
@<TRIPOS>BOND
     1    1    2 1
     2    1   23 1
     3    1   24 1
     4    1   25 1
     5    2    7 ar
     6    2    3 ar
     7    3    4 ar
     8    3   26 1
     9    4    5 ar
    10    4   27 1
    11    5    6 ar
    12    5    9 1
    13    6    7 ar
    14    6    8 1
    15    7   28 1
    16    9   10 1
    17    9   29 1
    18   10   16 1
    19   10   11 1
    20   10   20 1
    21   11   12 1
    22   11   30 1
    23   11   31 1
    24   12   13 1
    25   12   14 1
    26   12   19 1
    27   14   15 1
    28   14   32 1
    29   14   33 1
    30   15   16 1
    31   15   17 1
    32   15   18 1
    33   16   34 1
    34   16   35 1
    35   17   36 1
    36   17   37 1
    37   17   38 1
    38   18   39 1
    39   18   40 1
    40   18   41 1
    41   19   42 1
    42   19   43 1
    43   19   44 1
    44   20   21 2
    45   20   22 1
@<TRIPOS>MOLECULE
ZINC13839802
   36    38     0     0     0
SMALL
USER_CHARGES

@<TRIPOS>ATOM
      1 C1         -0.0167    1.3796    0.0096 C.ar      1 <0>        -0.1152
      2 C2          1.1681    2.0945    0.0022 C.ar      1 <0>        -0.1188
      3 C3          2.3774    1.4315   -0.0134 C.ar      1 <0>        -0.0971
      4 C4          2.4042    0.0344   -0.0212 C.ar      1 <0>         0.0238
      5 C5          1.2038   -0.6807   -0.0131 C.ar      1 <0>        -0.0981
      6 C6          0.0021   -0.0041    0.0020 C.ar      1 <0>        -0.1196
      7 C7          3.6559   -0.6611   -0.0379 C.1       1 <0>        -0.1418
      8 C8          4.6821   -1.2312   -0.0515 C.1       1 <0>        -0.0900
      9 C9          5.9337   -1.9267   -0.0682 C.ar      1 <0>         0.0019
     10 C10         7.1342   -1.2116   -0.0710 C.ar      1 <0>        -0.0976
     11 C11         8.3359   -1.8883   -0.0871 C.ar      1 <0>        -0.1079
     12 C12         8.3546   -3.2719   -0.1005 C.ar      1 <0>        -0.0469
     13 C13         7.1698   -3.9867   -0.0978 C.ar      1 <0>        -0.0696
     14 C14         5.9606   -3.3238   -0.0760 C.ar      1 <0>        -0.0953
     15 C15         9.6719   -4.0038   -0.1186 C.3       1 <0>         0.1657
     16 H1         10.4495   -3.4236    0.3782 H         1 <0>         0.0764
     17 N1          9.5431   -5.3646    0.4850 N.3       1 <0>        -0.6435
     18 C16        10.6542   -6.2244    0.0367 C.3       1 <0>         0.0018
     19 H2         11.5785   -5.8962    0.5122 H         1 <0>         0.0458
     20 C17        10.8121   -6.1408   -1.5042 C.3       1 <0>        -0.0225
     21 S1         10.1659   -4.4473   -1.8391 S.3       1 <0>        -0.3061
     22 C18        10.3706   -7.6511    0.4305 C.2       1 <0>         0.5087
     23 O1          9.2803   -7.9529    0.8850 O.co2     1 <0>        -0.6675
     24 O2         11.2316   -8.5036    0.2947 O.co2     1 <0>        -0.6937
     25 H3         -0.9606    1.9041    0.0260 H         1 <0>         0.1242
     26 H4          1.1458    3.1742    0.0082 H         1 <0>         0.1273
     27 H5          3.3013    1.9907   -0.0200 H         1 <0>         0.1277
     28 H6          1.2169   -1.7606   -0.0194 H         1 <0>         0.1266
     29 H7         -0.9266   -0.5554    0.0083 H         1 <0>         0.1268
     30 H8          7.1211   -0.1317   -0.0609 H         1 <0>         0.1247
     31 H9          9.2646   -1.3369   -0.0896 H         1 <0>         0.1261
     32 H10         7.1921   -5.0665   -0.1084 H         1 <0>         0.1507
     33 H11         5.0366   -3.8830   -0.0694 H         1 <0>         0.1274
     34 H12         9.5104   -5.3119    1.4921 H         1 <0>         0.3511
     35 H13        11.8589   -6.2251   -1.7960 H         1 <0>         0.0980
     36 H14        10.2061   -6.8978   -2.0019 H         1 <0>         0.0966
@<TRIPOS>BOND
     1    1    6 ar
     2    1    2 ar
     3    1   25 1
     4    2    3 ar
     5    2   26 1
     6    3    4 ar
     7    3   27 1
     8    4    5 ar
     9    4    7 1
    10    5    6 ar
    11    5   28 1
    12    6   29 1
    13    7    8 3
    14    8    9 1
    15    9   14 ar
    16    9   10 ar
    17   10   11 ar
    18   10   30 1
    19   11   12 ar
    20   11   31 1
    21   12   13 ar
    22   12   15 1
    23   13   14 ar
    24   13   32 1
    25   14   33 1
    26   15   16 1
    27   15   21 1
    28   15   17 1
    29   17   18 1
    30   17   34 1
    31   18   19 1
    32   18   20 1
    33   18   22 1
    34   20   21 1
    35   20   35 1
    36   20   36 1
    37   22   23 2
    38   22   24 1
@<TRIPOS>MOLECULE
ZINC61689908
   27    27     0     0     0
SMALL
USER_CHARGES

@<TRIPOS>ATOM
      1 C1         -0.0187    1.5258    0.0104 C.3       1 <0>        -0.1318
      2 C2          0.0021   -0.0041    0.0020 C.3       1 <0>        -0.1866
      3 H1          0.5293   -0.3651    0.8851 H         1 <0>         0.0690
      4 C3          0.7074   -0.4901   -1.2379 C.2       1 <0>         0.5071
      5 O1          1.4615   -1.4461   -1.1751 O.co2     1 <0>        -0.7027
      6 O2          0.5241    0.0728   -2.3037 O.co2     1 <0>        -0.6846
      7 C4         -1.4333   -0.5336    0.0129 C.3       1 <0>         0.1926
      8 C5         -1.4126   -2.0635    0.0045 C.3       1 <0>        -0.1289
      9 C6         -2.1387   -0.0476    1.2528 C.ar      1 <0>        -0.1016
     10 C7         -1.4182    0.1915    2.4084 C.ar      1 <0>        -0.0634
     11 C8         -2.0634    0.6376    3.5461 C.ar      1 <0>        -0.1495
     12 C9         -3.4322    0.8453    3.5289 C.ar      1 <0>         0.1154
     13 C10        -4.1534    0.6055    2.3707 C.ar      1 <0>        -0.1313
     14 C11        -3.5044    0.1641    1.2320 C.ar      1 <0>        -0.0518
     15 Br1        -6.0229    0.8884    2.3447 Br        1 <0>        -0.0392
     16 F1         -4.0640    1.2810    4.6407 F         1 <0>        -0.1299
     17 O3         -2.1245   -0.0603   -1.1448 O.3       1 <0>        -0.5375
     18 H2          1.0039    1.9031    0.0027 H         1 <0>         0.0505
     19 H3         -0.5459    1.8868   -0.8726 H         1 <0>         0.0599
     20 H4         -0.5289    1.8773    0.9072 H         1 <0>         0.0380
     21 H5         -0.8854   -2.4246    0.8875 H         1 <0>         0.0660
     22 H6         -2.4352   -2.4408    0.0122 H         1 <0>         0.0519
     23 H7         -0.9024   -2.4150   -0.8923 H         1 <0>         0.0804
     24 H8         -0.3506    0.0291    2.4221 H         1 <0>         0.1456
     25 H9         -1.5002    0.8238    4.4486 H         1 <0>         0.1430
     26 H10        -4.0654   -0.0187    0.3275 H         1 <0>         0.1483
     27 H11        -2.1763    0.9034   -1.2053 H         1 <0>         0.3710
@<TRIPOS>BOND
     1    1    2 1
     2    1   18 1
     3    1   19 1
     4    1   20 1
     5    2    3 1
     6    2    4 1
     7    2    7 1
     8    4    5 2
     9    4    6 1
    10    7    8 1
    11    7    9 1
    12    7   17 1
    13    8   21 1
    14    8   22 1
    15    8   23 1
    16    9   14 ar
    17    9   10 ar
    18   10   11 ar
    19   10   24 1
    20   11   12 ar
    21   11   25 1
    22   12   13 ar
    23   12   16 1
    24   13   14 ar
    25   13   15 1
    26   14   26 1
    27   17   27 1
@<TRIPOS>MOLECULE
ZINC32115164
   45    46     0     0     0
SMALL
USER_CHARGES
N-[4-[(3-bromo-5-chloro-2-hydroxy-phenyl)methyleneamino]-2-methoxy-phenyl]pentanamide
@<TRIPOS>ATOM
      1 C1          4.6632    1.2755   -2.0278 C.3       1 <0>        -0.1545
      2 C2          3.5899    2.0838   -1.2960 C.3       1 <0>        -0.1250
      3 C3          2.2738    1.3036   -1.2984 C.3       1 <0>        -0.1066
      4 C4          1.2004    2.1119   -0.5667 C.3       1 <0>        -0.1383
      5 C5         -0.0959    1.3434   -0.5690 C.2       1 <0>         0.5083
      6 O1         -0.1555    0.2561   -1.1034 O.2       1 <0>        -0.5319
      7 N1         -1.1906    1.8667    0.0178 N.am      1 <0>        -0.6716
      8 C6         -2.4187    1.1998   -0.0703 C.ar      1 <0>         0.0825
      9 C7         -2.4549   -0.1885   -0.0716 C.ar      1 <0>        -0.0661
     10 C8         -3.6619   -0.8494   -0.1573 C.ar      1 <0>        -0.1905
     11 C9         -4.8520   -0.1226   -0.2437 C.ar      1 <0>         0.1443
     12 C10        -4.8161    1.2738   -0.2429 C.ar      1 <0>        -0.1922
     13 C11        -3.6034    1.9310   -0.1509 C.ar      1 <0>         0.1178
     14 O2         -3.5654    3.2902   -0.1443 O.3       1 <0>        -0.3222
     15 C12        -4.8169    3.9746   -0.2296 C.3       1 <0>         0.0257
     16 N2         -6.0503   -0.7773   -0.3293 N.2       1 <0>        -0.4637
     17 C13        -6.1829   -1.7911   -1.1383 C.2       1 <0>         0.2354
     18 C14        -7.4707   -2.4948   -1.2302 C.ar      1 <0>        -0.2292
     19 C15        -7.6176   -3.5829   -2.0969 C.ar      1 <0>        -0.0067
     20 C16        -8.8280   -4.2385   -2.1777 C.ar      1 <0>        -0.1707
     21 C17        -9.9009   -3.8237   -1.4040 C.ar      1 <0>        -0.0135
     22 C18        -9.7689   -2.7502   -0.5434 C.ar      1 <0>        -0.2129
     23 C19        -8.5577   -2.0824   -0.4451 C.ar      1 <0>         0.3187
     24 O3         -8.4257   -1.0310    0.4034 O.3       1 <0>        -0.6160
     25 Br1       -11.2406   -2.1956    0.5065 Br        1 <0>        -0.0825
     26 Cl1        -9.0092   -5.5888   -3.2535 Cl        1 <0>        -0.1130
     27 H1          5.6094    1.8364   -2.0261 H         1 <0>         0.0529
     28 H2          4.3443    1.0975   -3.0654 H         1 <0>         0.0550
     29 H3          4.8074    0.3115   -1.5180 H         1 <0>         0.0549
     30 H4          3.9088    2.2618   -0.2584 H         1 <0>         0.0614
     31 H5          3.4456    3.0478   -1.8057 H         1 <0>         0.0614
     32 H6          1.9550    1.1255   -2.3360 H         1 <0>         0.0703
     33 H7          2.4181    0.3396   -0.7886 H         1 <0>         0.0702
     34 H8          1.5192    2.2900    0.4709 H         1 <0>         0.0933
     35 H9          1.0561    3.0759   -1.0765 H         1 <0>         0.0942
     36 H10        -1.1193    2.8177    0.5660 H         1 <0>         0.4317
     37 H11        -1.5358   -0.7515   -0.0049 H         1 <0>         0.1405
     38 H12        -3.6873   -1.9291   -0.1581 H         1 <0>         0.1226
     39 H13        -5.7341    1.8388   -0.3091 H         1 <0>         0.1358
     40 H14        -4.6427    5.0606   -0.2143 H         1 <0>         0.0977
     41 H15        -5.4482    3.6924    0.6259 H         1 <0>         0.0592
     42 H16        -5.3232    3.6976   -1.1661 H         1 <0>         0.0564
     43 H17        -5.3314   -2.1200   -1.7521 H         1 <0>         0.0876
     44 H18        -6.7844   -3.9088   -2.7019 H         1 <0>         0.1147
     45 H19       -10.8454   -4.3426   -1.4739 H         1 <0>         0.1146
@<TRIPOS>BOND
     1    1    2 1
     2    1   27 1
     3    1   28 1
     4    1   29 1
     5    2    3 1
     6    2   30 1
     7    2   31 1
     8    3    4 1
     9    3   32 1
    10    3   33 1
    11    4    5 1
    12    4   34 1
    13    4   35 1
    14    5    6 2
    15    5    7 am
    16    7    8 1
    17    7   36 1
    18    8   13 ar
    19    8    9 ar
    20    9   10 ar
    21    9   37 1
    22   10   11 ar
    23   10   38 1
    24   11   12 ar
    25   11   16 1
    26   12   13 ar
    27   12   39 1
    28   13   14 1
    29   14   15 1
    30   15   40 1
    31   15   41 1
    32   15   42 1
    33   16   17 2
    34   17   18 1
    35   17   43 1
    36   18   23 ar
    37   18   19 ar
    38   19   20 ar
    39   19   44 1
    40   20   21 ar
    41   20   26 1
    42   21   22 ar
    43   21   45 1
    44   22   23 ar
    45   22   25 1
    46   23   24 1
@<TRIPOS>MOLECULE
ZINC36050470
   55    57     0     0     0
SMALL
USER_CHARGES

@<TRIPOS>ATOM
      1 C1         -0.0362    1.9801    0.1286 C.3       1 <0>        -0.0922
      2 C2          0.0403    0.4751    0.1164 C.2       1 <0>         0.3100
      3 C3         -1.1221   -0.2713    0.1461 C.2       1 <0>        -0.3948
      4 C4         -0.9932   -1.7781    0.1318 C.3       1 <0>         0.2638
      5 H1         -1.5370   -2.1532   -0.7352 H         1 <0>         0.0745
      6 N1          0.3834   -2.3390    0.0865 N.pl3     1 <0>        -0.5117
      7 C5          0.7367   -3.6736    0.0662 C.2       1 <0>         0.2331
      8 C6          2.0538   -3.9728    0.0241 C.2       1 <0>        -0.3038
      9 S1          2.7993   -2.3546    0.0133 S.3       1 <0>         0.1302
     10 C7          1.4013   -1.4271    0.0623 C.2       1 <0>         0.3373
     11 N2          1.2198   -0.1225    0.0717 N.2       1 <0>        -0.5942
     12 C8         -0.2837   -4.7314    0.0899 C.2       1 <0>        -0.4692
     13 C9          0.0862   -6.0214    0.2051 C.2       1 <0>         0.5029
     14 O1          1.4000   -6.3538    0.1882 O.3       1 <0>        -0.7032
     15 N3         -0.8759   -7.0080    0.3410 N.pl3     1 <0>        -0.7504
     16 C10        -0.4729   -8.3965    0.5772 C.3       1 <0>         0.1499
     17 C11        -0.3463   -8.6418    2.0821 C.3       1 <0>        -0.1571
     18 C12        -1.5268   -9.3397   -0.0064 C.3       1 <0>        -0.1571
     19 C13        -1.6711   -2.3135    1.3666 C.ar      1 <0>        -0.0632
     20 C14        -2.8888   -2.9595    1.2616 C.ar      1 <0>        -0.0664
     21 C15        -3.5107   -3.4506    2.3941 C.ar      1 <0>        -0.1215
     22 C16        -2.9155   -3.2962    3.6324 C.ar      1 <0>        -0.1106
     23 C17        -1.6982   -2.6506    3.7386 C.ar      1 <0>        -0.1191
     24 C18        -1.0724   -2.1637    2.6046 C.ar      1 <0>        -0.0114
     25 Cl1         0.4599   -1.3584    2.7363 Cl        1 <0>        -0.0662
     26 C19        -2.3777    0.3469    0.1886 C.2       1 <0>         0.5363
     27 O2         -2.4574    1.5572    0.3080 O.2       1 <0>        -0.5504
     28 O3         -3.5013   -0.3985    0.0972 O.3       1 <0>        -0.3508
     29 C20        -4.7479    0.2982    0.1477 C.3       1 <0>         0.0827
     30 C21        -5.1710    0.6898   -1.2695 C.3       1 <0>        -0.1675
     31 C22        -5.8141   -0.6083    0.7660 C.3       1 <0>        -0.1463
     32 H2          0.9711    2.3953    0.0964 H         1 <0>         0.0630
     33 H3         -0.5983    2.3225   -0.7403 H         1 <0>         0.0824
     34 H4         -0.5366    2.3111    1.0386 H         1 <0>         0.0880
     35 H5          2.5308   -4.9416    0.0032 H         1 <0>         0.2361
     36 H6         -1.3299   -4.4743    0.0148 H         1 <0>         0.0854
     37 H7         -1.8166   -6.7797    0.2797 H         1 <0>         0.3822
     38 H8          0.4875   -8.5828    0.0966 H         1 <0>         0.0823
     39 H9         -0.0465   -9.6749    2.2578 H         1 <0>         0.0487
     40 H10         0.4045   -7.9699    2.4979 H         1 <0>         0.0584
     41 H11        -1.3068   -8.4555    2.5626 H         1 <0>         0.0444
     42 H12        -1.6169   -9.1649   -1.0786 H         1 <0>         0.0547
     43 H13        -1.2269  -10.3728    0.1693 H         1 <0>         0.0592
     44 H14        -2.4872   -9.1533    0.4741 H         1 <0>         0.0506
     45 H15        -3.3544   -3.0801    0.2947 H         1 <0>         0.1259
     46 H16        -4.4622   -3.9549    2.3117 H         1 <0>         0.1217
     47 H17        -3.4021   -3.6798    4.5170 H         1 <0>         0.1232
     48 H18        -1.2335   -2.5297    4.7060 H         1 <0>         0.1242
     49 H19        -4.6378    1.1964    0.7553 H         1 <0>         0.0766
     50 H20        -5.2811   -0.2084   -1.8772 H         1 <0>         0.0608
     51 H21        -6.1219    1.2213   -1.2311 H         1 <0>         0.0649
     52 H22        -4.4114    1.3357   -1.7101 H         1 <0>         0.0596
     53 H23        -5.5127   -0.8873    1.7757 H         1 <0>         0.0618
     54 H24        -6.7650   -0.0769    0.8045 H         1 <0>         0.0687
     55 H25        -5.9242   -1.5065    0.1584 H         1 <0>         0.0633
@<TRIPOS>BOND
     1    1    2 1
     2    1   32 1
     3    1   33 1
     4    1   34 1
     5    2   11 1
     6    2    3 2
     7    3    4 1
     8    3   26 1
     9    4    5 1
    10    4    6 1
    11    4   19 1
    12    6   10 1
    13    6    7 1
    14    7    8 2
    15    7   12 1
    16    8    9 1
    17    8   35 1
    18    9   10 1
    19   10   11 2
    20   12   13 2
    21   12   36 1
    22   13   14 1
    23   13   15 1
    24   15   16 1
    25   15   37 1
    26   16   17 1
    27   16   18 1
    28   16   38 1
    29   17   39 1
    30   17   40 1
    31   17   41 1
    32   18   42 1
    33   18   43 1
    34   18   44 1
    35   19   24 ar
    36   19   20 ar
    37   20   21 ar
    38   20   45 1
    39   21   22 ar
    40   21   46 1
    41   22   23 ar
    42   22   47 1
    43   23   24 ar
    44   23   48 1
    45   24   25 1
    46   26   27 2
    47   26   28 1
    48   28   29 1
    49   29   30 1
    50   29   31 1
    51   29   49 1
    52   30   50 1
    53   30   51 1
    54   30   52 1
    55   31   53 1
    56   31   54 1
    57   31   55 1
@<TRIPOS>MOLECULE
ZINC36065006
   58    60     0     0     0
SMALL
USER_CHARGES

@<TRIPOS>ATOM
      1 C1          3.4505   -1.3883   -2.2204 C.3       1 <0>        -0.1479
      2 C2          3.0876    0.0838   -2.4258 C.3       1 <0>        -0.1295
      3 C3          3.8314    0.9404   -1.3992 C.3       1 <0>         0.1574
      4 H1          4.9011    0.7428   -1.4679 H         1 <0>         0.0783
      5 C4          3.5669    2.4205   -1.6827 C.3       1 <0>        -0.1588
      6 N1          3.3590    0.6091   -0.0527 N.pl3     1 <0>        -0.7475
      7 C5          4.1782    0.8284    1.0419 C.2       1 <0>         0.5040
      8 O1          5.4171    1.3495    0.8675 O.3       1 <0>        -0.7023
      9 C6          3.7439    0.5237    2.2799 C.2       1 <0>        -0.4731
     10 C7          4.6536    0.6439    3.4283 C.2       1 <0>         0.2295
     11 C8          5.8912    1.1681    3.2885 C.2       1 <0>        -0.3052
     12 S1          6.5237    1.0684    4.9512 S.3       1 <0>         0.1379
     13 C9          5.1869    0.3768    5.6938 C.2       1 <0>         0.3308
     14 N2          4.9682    0.0248    6.9441 N.2       1 <0>        -0.5936
     15 C10         3.8471   -0.5174    7.3906 C.2       1 <0>         0.3073
     16 C11         2.7932   -0.7560    6.5294 C.2       1 <0>        -0.3993
     17 C12         2.9708   -0.3774    5.0760 C.3       1 <0>         0.2660
     18 H2          2.8239   -1.2749    4.4751 H         1 <0>         0.0773
     19 N3          4.2718    0.2305    4.6890 N.pl3     1 <0>        -0.5134
     20 C13         1.8825    0.6006    4.7150 C.ar      1 <0>        -0.1070
     21 C14         0.8169    0.1923    3.9351 C.ar      1 <0>        -0.0519
     22 C15        -0.1814    1.0891    3.6039 C.ar      1 <0>        -0.1367
     23 C16        -0.1155    2.3954    4.0523 C.ar      1 <0>        -0.0938
     24 C17         0.9486    2.8057    4.8325 C.ar      1 <0>        -0.1622
     25 C18         1.9467    1.9067    5.1693 C.ar      1 <0>         0.1202
     26 F1          2.9851    2.3055    5.9360 F         1 <0>        -0.1367
     27 C19         1.6007   -1.3295    6.9870 C.2       1 <0>         0.5370
     28 O2          1.4376   -1.5273    8.1785 O.2       1 <0>        -0.5503
     29 O3          0.6307   -1.6639    6.1075 O.3       1 <0>        -0.3504
     30 C20        -0.5595   -2.2448    6.6442 C.3       1 <0>         0.0822
     31 C21        -1.7499   -1.8833    5.7537 C.3       1 <0>        -0.1465
     32 C22        -0.4055   -3.7661    6.6970 C.3       1 <0>        -0.1675
     33 C23         3.7187   -0.8778    8.8483 C.3       1 <0>        -0.0919
     34 H3          3.1643   -1.6961   -1.2147 H         1 <0>         0.0578
     35 H4          2.9207   -1.9986   -2.9517 H         1 <0>         0.0459
     36 H5          4.5251   -1.5189   -2.3484 H         1 <0>         0.0526
     37 H6          3.3738    0.3916   -3.4315 H         1 <0>         0.0654
     38 H7          2.0131    0.2144   -2.2978 H         1 <0>         0.0583
     39 H8          2.4972    2.6181   -1.6141 H         1 <0>         0.0440
     40 H9          4.0968    3.0308   -0.9513 H         1 <0>         0.0620
     41 H10         3.9184    2.6670   -2.6846 H         1 <0>         0.0479
     42 H11         2.4723    0.2361    0.0721 H         1 <0>         0.3822
     43 H12         2.7272    0.1911    2.4289 H         1 <0>         0.0891
     44 H13         6.3722    1.5487    2.3995 H         1 <0>         0.2374
     45 H14         0.7645   -0.8277    3.5840 H         1 <0>         0.1279
     46 H15        -1.0135    0.7693    2.9941 H         1 <0>         0.1231
     47 H16        -0.8957    3.0954    3.7923 H         1 <0>         0.1246
     48 H17         1.0001    3.8261    5.1824 H         1 <0>         0.1269
     49 H18        -0.7290   -1.8617    7.6505 H         1 <0>         0.0767
     50 H19        -1.5804   -2.2665    4.7474 H         1 <0>         0.0636
     51 H20        -2.6577   -2.3264    6.1631 H         1 <0>         0.0689
     52 H21        -1.8596   -0.7995    5.7161 H         1 <0>         0.0622
     53 H22        -0.2360   -4.1493    5.6907 H         1 <0>         0.0610
     54 H23         0.4426   -4.0237    7.3315 H         1 <0>         0.0596
     55 H24        -1.3133   -4.2093    7.1064 H         1 <0>         0.0651
     56 H25         4.6410   -0.6200    9.3688 H         1 <0>         0.0639
     57 H26         2.8874   -0.3260    9.2871 H         1 <0>         0.0884
     58 H27         3.5349   -1.9480    8.9431 H         1 <0>         0.0830
@<TRIPOS>BOND
     1    1    2 1
     2    1   34 1
     3    1   35 1
     4    1   36 1
     5    2    3 1
     6    2   37 1
     7    2   38 1
     8    3    4 1
     9    3    5 1
    10    3    6 1
    11    5   39 1
    12    5   40 1
    13    5   41 1
    14    6    7 1
    15    6   42 1
    16    7    8 1
    17    7    9 2
    18    9   10 1
    19    9   43 1
    20   10   19 1
    21   10   11 2
    22   11   12 1
    23   11   44 1
    24   12   13 1
    25   13   19 1
    26   13   14 2
    27   14   15 1
    28   15   16 2
    29   15   33 1
    30   16   17 1
    31   16   27 1
    32   17   18 1
    33   17   19 1
    34   17   20 1
    35   20   25 ar
    36   20   21 ar
    37   21   22 ar
    38   21   45 1
    39   22   23 ar
    40   22   46 1
    41   23   24 ar
    42   23   47 1
    43   24   25 ar
    44   24   48 1
    45   25   26 1
    46   27   28 2
    47   27   29 1
    48   29   30 1
    49   30   31 1
    50   30   32 1
    51   30   49 1
    52   31   50 1
    53   31   51 1
    54   31   52 1
    55   32   53 1
    56   32   54 1
    57   32   55 1
    58   33   56 1
    59   33   57 1
    60   33   58 1
@<TRIPOS>MOLECULE
ZINC44681304
   79    82     0     0     0
SMALL
USER_CHARGES

@<TRIPOS>ATOM
      1 C1         -0.0648    1.3430    1.7090 C.3       1 <0>        -0.1009
      2 C2          0.0595   -0.1573    1.6418 C.2       1 <0>        -0.1808
      3 C3          0.2175   -0.8636    2.7606 C.2       1 <0>        -0.1537
      4 C4          0.1455   -0.1781    4.1008 C.3       1 <0>        -0.0878
      5 C5         -0.9620   -0.8167    4.9414 C.3       1 <0>        -0.1088
      6 C6         -1.1333   -0.0293    6.2420 C.3       1 <0>        -0.0800
      7 H1         -1.3041    1.0220    6.0105 H         1 <0>         0.0821
      8 C7          0.1322   -0.1656    7.0911 C.3       1 <0>         0.0795
      9 O1          1.2154    0.5038    6.4424 O.3       1 <0>        -0.5604
     10 C8         -2.3303   -0.5816    7.0186 C.3       1 <0>        -0.0694
     11 H2         -2.1674   -1.6301    7.2678 H         1 <0>         0.0722
     12 C9         -2.5640    0.2476    8.3075 C.3       1 <0>        -0.1199
     13 C10        -4.0248    0.7740    8.2301 C.3       1 <0>        -0.1072
     14 C11        -4.6959   -0.2345    7.2952 C.3       1 <0>        -0.0282
     15 C12        -3.6080   -0.4243    6.2026 C.3       1 <0>        -0.0424
     16 C13        -4.0680   -1.6294    5.4012 C.3       1 <0>        -0.1174
     17 C14        -5.3194   -1.1901    4.6395 C.3       1 <0>        -0.0841
     18 C15        -6.2100   -0.2385    5.4069 C.2       1 <0>        -0.0991
     19 C16        -5.9504    0.2181    6.6091 C.2       1 <0>        -0.0972
     20 C17        -6.8398    1.1623    7.3778 C.3       1 <0>        -0.0747
     21 C18        -7.8980    1.8019    6.4836 C.3       1 <0>        -0.1273
     22 C19        -8.5189    0.6817    5.6443 C.3       1 <0>        -0.0560
     23 H3         -8.7966   -0.1425    6.3013 H         1 <0>         0.0815
     24 C20        -7.4623    0.1899    4.6557 C.3       1 <0>        -0.0182
     25 C21        -7.0631    1.3208    3.7021 C.3       1 <0>        -0.1044
     26 C22        -8.2790    1.7697    2.8879 C.3       1 <0>        -0.1750
     27 C23        -9.3750    2.1640    3.8546 C.2       1 <0>         0.3742
     28 O2         -9.9162    3.2408    3.7788 O.2       1 <0>        -0.4550
     29 C24        -9.7623    1.1774    4.9154 C.3       1 <0>        -0.1047
     30 C25       -10.7040    1.8536    5.9138 C.3       1 <0>        -0.1370
     31 C26       -10.4763   -0.0067    4.2603 C.3       1 <0>        -0.1492
     32 C27        -8.0103   -0.9939    3.8563 C.3       1 <0>        -0.1635
     33 C28        -3.5216    0.8188    5.3148 C.3       1 <0>        -0.1549
     34 C29        -4.9514   -1.5471    8.0386 C.3       1 <0>        -0.1340
     35 C30         0.0067   -0.8404    0.3445 C.2       1 <0>         0.5137
     36 O3          0.1076   -2.0587    0.2899 O.co2     1 <0>        -0.6982
     37 O4         -0.1384   -0.1918   -0.6830 O.co2     1 <0>        -0.6980
     38 H4          0.7927    1.7552    2.2409 H         1 <0>         0.0478
     39 H5         -0.0958    1.7506    0.6985 H         1 <0>         0.0661
     40 H6         -0.9812    1.6084    2.2361 H         1 <0>         0.0472
     41 H7          0.3971   -1.9272    2.7070 H         1 <0>         0.1075
     42 H8          1.1002   -0.2857    4.6156 H         1 <0>         0.0821
     43 H9         -0.0722    0.8801    3.9564 H         1 <0>         0.0603
     44 H10        -1.8972   -0.8018    4.3818 H         1 <0>         0.0727
     45 H11        -0.6937   -1.8474    5.1732 H         1 <0>         0.0538
     46 H12        -0.0373    0.2821    8.0703 H         1 <0>         0.0400
     47 H13         0.3771   -1.2208    7.2115 H         1 <0>         0.0406
     48 H14         2.0518    0.4583    6.9256 H         1 <0>         0.3698
     49 H15        -2.4401   -0.3846    9.1868 H         1 <0>         0.0604
     50 H16        -1.8663    1.0841    8.3461 H         1 <0>         0.0645
     51 H17        -4.4933    0.7601    9.2141 H         1 <0>         0.0611
     52 H18        -4.0524    1.7759    7.8017 H         1 <0>         0.0681
     53 H19        -3.2901   -1.9310    4.6999 H         1 <0>         0.0746
     54 H20        -4.3088   -2.4544    6.0717 H         1 <0>         0.0709
     55 H21        -5.0093   -0.7045    3.7142 H         1 <0>         0.0732
     56 H22        -5.8989   -2.0772    4.3840 H         1 <0>         0.0720
     57 H23        -7.3362    0.6111    8.1764 H         1 <0>         0.0675
     58 H24        -6.2262    1.9478    7.8190 H         1 <0>         0.0700
     59 H25        -8.6650    2.2752    7.0965 H         1 <0>         0.0725
     60 H26        -7.4345    2.5415    5.8307 H         1 <0>         0.0671
     61 H27        -6.6826    2.1636    4.2791 H         1 <0>         0.0717
     62 H28        -6.2853    0.9663    3.0257 H         1 <0>         0.0803
     63 H29        -8.0108    2.6246    2.2673 H         1 <0>         0.0894
     64 H30        -8.6223    0.9498    2.2571 H         1 <0>         0.1011
     65 H31       -10.1950    2.6978    6.3789 H         1 <0>         0.0629
     66 H32       -11.5930    2.2079    5.3921 H         1 <0>         0.0599
     67 H33       -10.9949    1.1367    6.6817 H         1 <0>         0.0606
     68 H34       -10.3877   -0.8840    4.9010 H         1 <0>         0.0709
     69 H35       -11.5296    0.2363    4.1205 H         1 <0>         0.0562
     70 H36       -10.0202   -0.2158    3.2926 H         1 <0>         0.0748
     71 H37        -8.6009   -1.6332    4.5125 H         1 <0>         0.0601
     72 H38        -8.6392   -0.6252    3.0459 H         1 <0>         0.0683
     73 H39        -7.1812   -1.5668    3.4409 H         1 <0>         0.0680
     74 H40        -2.6907    0.7103    4.6177 H         1 <0>         0.0696
     75 H41        -4.4513    0.9324    4.7572 H         1 <0>         0.0642
     76 H42        -3.3612    1.6992    5.9371 H         1 <0>         0.0505
     77 H43        -5.6237   -1.3650    8.8769 H         1 <0>         0.0494
     78 H44        -5.4057   -2.2674    7.3583 H         1 <0>         0.0600
     79 H45        -4.0067   -1.9441    8.4101 H         1 <0>         0.0570
@<TRIPOS>BOND
     1    1    2 1
     2    1   38 1
     3    1   39 1
     4    1   40 1
     5    2    3 2
     6    2   35 1
     7    3    4 1
     8    3   41 1
     9    4    5 1
    10    4   42 1
    11    4   43 1
    12    5    6 1
    13    5   44 1
    14    5   45 1
    15    6    7 1
    16    6    8 1
    17    6   10 1
    18    8    9 1
    19    8   46 1
    20    8   47 1
    21    9   48 1
    22   10   11 1
    23   10   15 1
    24   10   12 1
    25   12   13 1
    26   12   49 1
    27   12   50 1
    28   13   14 1
    29   13   51 1
    30   13   52 1
    31   14   19 1
    32   14   15 1
    33   14   34 1
    34   15   16 1
    35   15   33 1
    36   16   17 1
    37   16   53 1
    38   16   54 1
    39   17   18 1
    40   17   55 1
    41   17   56 1
    42   18   24 1
    43   18   19 2
    44   19   20 1
    45   20   21 1
    46   20   57 1
    47   20   58 1
    48   21   22 1
    49   21   59 1
    50   21   60 1
    51   22   23 1
    52   22   29 1
    53   22   24 1
    54   24   25 1
    55   24   32 1
    56   25   26 1
    57   25   61 1
    58   25   62 1
    59   26   27 1
    60   26   63 1
    61   26   64 1
    62   27   28 2
    63   27   29 1
    64   29   30 1
    65   29   31 1
    66   30   65 1
    67   30   66 1
    68   30   67 1
    69   31   68 1
    70   31   69 1
    71   31   70 1
    72   32   71 1
    73   32   72 1
    74   32   73 1
    75   33   74 1
    76   33   75 1
    77   33   76 1
    78   34   77 1
    79   34   78 1
    80   34   79 1
    81   35   36 2
    82   35   37 1
@<TRIPOS>MOLECULE
ZINC13572760
   68    72     0     0     0
SMALL
USER_CHARGES

@<TRIPOS>ATOM
      1 C1         -0.3158    0.9214   -0.1153 C.3       1 <0>        -0.0949
      2 C2         -0.0298   -0.5558   -0.1992 C.2       1 <0>         0.0852
      3 C3          0.1690   -1.2388   -1.3378 C.2       1 <0>        -0.1575
      4 C4          0.4126   -2.6341   -0.9639 C.ar      1 <0>        -0.0570
      5 C5          0.6779   -3.7991   -1.6872 C.ar      1 <0>        -0.1015
      6 C6          0.8643   -4.9909   -1.0161 C.ar      1 <0>         0.0958
      7 C7          0.7882   -5.0331    0.3739 C.ar      1 <0>        -0.1820
      8 C8          0.5272   -3.8909    1.0970 C.ar      1 <0>        -0.0948
      9 C9          0.3368   -2.6800    0.4395 C.ar      1 <0>         0.0677
     10 N1          0.0715   -1.3983    0.8738 N.pl3     1 <0>        -0.5957
     11 H1         -0.0301   -1.1340    1.8016 H         1 <0>         0.4110
     12 O1          1.1229   -6.1284   -1.7150 O.3       1 <0>        -0.3091
     13 C10         1.3055   -7.3271   -0.9588 C.3       1 <0>         0.1035
     14 C11         1.5805   -8.4751   -1.8956 C.ar      1 <0>        -0.0940
     15 C12         0.5322   -9.2215   -2.4004 C.ar      1 <0>        -0.0956
     16 C13         0.7844  -10.2745   -3.2597 C.ar      1 <0>        -0.1243
     17 C14         2.0848  -10.5808   -3.6146 C.ar      1 <0>        -0.1120
     18 C15         3.1330   -9.8338   -3.1105 C.ar      1 <0>        -0.1236
     19 C16         2.8806   -8.7781   -2.2545 C.ar      1 <0>        -0.0949
     20 C17         0.1455   -0.6765   -2.7358 C.3       1 <0>        -0.0336
     21 C18         1.5521   -0.2167   -3.1242 C.3       1 <0>         0.0437
     22 N2          1.5293    0.3299   -4.4832 N.2       1 <0>        -0.5540
     23 C19         1.7820    1.5853   -4.6810 C.2       1 <0>         0.3253
     24 C20         2.2060    2.4592   -3.5288 C.3       1 <0>        -0.1535
     25 C21         1.6549    2.1576   -6.0305 C.2       1 <0>        -0.5215
     26 C22         2.6303    1.8787   -6.9872 C.2       1 <0>         0.3977
     27 C23         2.5267    2.4490   -8.3776 C.3       1 <0>        -0.1438
     28 C24         1.7859    3.7878   -8.3227 C.3       1 <0>        -0.0347
     29 H2          2.3510    4.4925   -7.7127 H         1 <0>         0.0792
     30 C25         0.4031    3.5681   -7.7030 C.3       1 <0>        -0.1422
     31 C26         0.5582    2.9646   -6.3316 C.2       1 <0>         0.3958
     32 O2         -0.2821    3.1876   -5.4742 O.2       1 <0>        -0.5876
     33 C27         1.6337    4.3374   -9.7176 C.ar      1 <0>        -0.0617
     34 C28         0.9401    3.6174  -10.6723 C.ar      1 <0>        -0.1139
     35 C29         0.8006    4.1216  -11.9519 C.ar      1 <0>        -0.1206
     36 C30         1.3542    5.3459  -12.2766 C.ar      1 <0>        -0.1347
     37 C31         2.0470    6.0663  -11.3216 C.ar      1 <0>        -0.1218
     38 C32         2.1829    5.5641  -10.0409 C.ar      1 <0>        -0.1195
     39 O3          3.5776    1.1658   -6.6950 O.3       1 <0>        -0.5794
     40 H3          0.6233    1.4695   -0.0390 H         1 <0>         0.0776
     41 H4         -0.8504    1.2394   -1.0103 H         1 <0>         0.0893
     42 H5         -0.9270    1.1237    0.7642 H         1 <0>         0.0652
     43 H6          0.7365   -3.7678   -2.7652 H         1 <0>         0.1323
     44 H7          0.9348   -5.9707    0.8894 H         1 <0>         0.1273
     45 H8          0.4703   -3.9351    2.1745 H         1 <0>         0.1198
     46 H9          2.1485   -7.2030   -0.2790 H         1 <0>         0.0680
     47 H10         0.4030   -7.5352   -0.3841 H         1 <0>         0.0678
     48 H11        -0.4838   -8.9822   -2.1232 H         1 <0>         0.1240
     49 H12        -0.0346  -10.8581   -3.6536 H         1 <0>         0.1241
     50 H13         2.2819  -11.4039   -4.2854 H         1 <0>         0.1229
     51 H14         4.1491  -10.0733   -3.3875 H         1 <0>         0.1245
     52 H15         3.6992   -8.1922   -1.8636 H         1 <0>         0.1245
     53 H16        -0.1902   -1.4458   -3.4312 H         1 <0>         0.0725
     54 H17        -0.5378    0.1718   -2.7748 H         1 <0>         0.0669
     55 H18         1.8878    0.5526   -2.4288 H         1 <0>         0.0319
     56 H19         2.2355   -1.0650   -3.0852 H         1 <0>         0.0617
     57 H20         3.1608    2.1073   -3.1381 H         1 <0>         0.0550
     58 H21         2.3111    3.4882   -3.8727 H         1 <0>         0.0636
     59 H22         1.4528    2.4141   -2.7422 H         1 <0>         0.0559
     60 H23         3.5268    2.6030   -8.7830 H         1 <0>         0.0681
     61 H24         1.9782    1.7556   -9.0152 H         1 <0>         0.0752
     62 H25        -0.1167    4.5231   -7.6256 H         1 <0>         0.0691
     63 H26        -0.1736    2.8896   -8.3316 H         1 <0>         0.0747
     64 H27         0.5076    2.6609  -10.4186 H         1 <0>         0.1227
     65 H28         0.2593    3.5588  -12.6980 H         1 <0>         0.1174
     66 H29         1.2458    5.7395  -13.2765 H         1 <0>         0.1151
     67 H30         2.4798    7.0227  -11.5754 H         1 <0>         0.1167
     68 H31         2.7210    6.1286   -9.2938 H         1 <0>         0.1205
@<TRIPOS>BOND
     1    1    2 1
     2    1   40 1
     3    1   41 1
     4    1   42 1
     5    2   10 1
     6    2    3 2
     7    3    4 1
     8    3   20 1
     9    4    9 ar
    10    4    5 ar
    11    5    6 ar
    12    5   43 1
    13    6    7 ar
    14    6   12 1
    15    7    8 ar
    16    7   44 1
    17    8    9 ar
    18    8   45 1
    19    9   10 1
    20   10   11 1
    21   12   13 1
    22   13   14 1
    23   13   46 1
    24   13   47 1
    25   14   19 ar
    26   14   15 ar
    27   15   16 ar
    28   15   48 1
    29   16   17 ar
    30   16   49 1
    31   17   18 ar
    32   17   50 1
    33   18   19 ar
    34   18   51 1
    35   19   52 1
    36   20   21 1
    37   20   53 1
    38   20   54 1
    39   21   22 1
    40   21   55 1
    41   21   56 1
    42   22   23 2
    43   23   24 1
    44   23   25 1
    45   24   57 1
    46   24   58 1
    47   24   59 1
    48   25   31 1
    49   25   26 2
    50   26   27 1
    51   26   39 1
    52   27   28 1
    53   27   60 1
    54   27   61 1
    55   28   29 1
    56   28   30 1
    57   28   33 1
    58   30   31 1
    59   30   62 1
    60   30   63 1
    61   31   32 2
    62   33   38 ar
    63   33   34 ar
    64   34   35 ar
    65   34   64 1
    66   35   36 ar
    67   35   65 1
    68   36   37 ar
    69   36   66 1
    70   37   38 ar
    71   37   67 1
    72   38   68 1
@<TRIPOS>MOLECULE
ZINC13061056
   41    43     0     0     0
SMALL
USER_CHARGES
4-[(N'Z)-N'-[(4aS,8aS)-decalin-2-ylidene]hydrazino]-3,5,6-trichloro-pyridine-2-carboxylic acid
@<TRIPOS>ATOM
      1 C1         -1.7089    5.0984    2.4741 C.3       1 <0>        -0.1196
      2 C2         -2.5990    5.4831    1.2899 C.3       1 <0>        -0.1199
      3 C3         -1.9370    5.0203   -0.0084 C.3       1 <0>        -0.1165
      4 C4         -1.7580    3.5000    0.0148 C.3       1 <0>        -0.0710
      5 H1         -2.7306    3.0141    0.0929 H         1 <0>         0.0735
      6 C5         -1.0711    3.0682   -1.2869 C.3       1 <0>        -0.1152
      7 C6         -0.7592    1.5912   -1.2067 C.2       1 <0>         0.0805
      8 N1         -1.1152    0.7917   -2.1409 N.2       1 <0>        -0.2160
      9 N2         -1.8921    1.2623   -3.2076 N.pl3     1 <0>        -0.5761
     10 C7         -2.3713    0.3724   -4.1660 C.ar      1 <0>         0.2672
     11 C8         -2.8772    0.8348   -5.3825 C.ar      1 <0>        -0.1161
     12 C9         -3.3418   -0.0890   -6.3142 C.ar      1 <0>         0.1676
     13 N3         -3.3147   -1.3918   -6.0482 N.ar      1 <0>        -0.4308
     14 C10        -2.8487   -1.8580   -4.9088 C.ar      1 <0>         0.2047
     15 C11        -2.3633   -1.0017   -3.9323 C.ar      1 <0>        -0.1208
     16 Cl1        -1.7518   -1.6340   -2.4356 Cl        1 <0>        -0.0190
     17 Cl2        -2.8412   -3.5706   -4.6248 Cl        1 <0>        -0.0191
     18 C12        -3.8763    0.3831   -7.6101 C.2       1 <0>         0.4992
     19 O1         -3.9038    1.5715   -7.8590 O.co2     1 <0>        -0.5938
     20 Cl3        -2.9202    2.5351   -5.7301 Cl        1 <0>        -0.0133
     21 C13        -0.0148    1.0846    0.0093 C.3       1 <0>        -0.0532
     22 C14        -0.7454    1.5769    1.2619 C.3       1 <0>        -0.1105
     23 C15        -0.8888    3.1006    1.2081 C.3       1 <0>        -0.0813
     24 H2          0.0966    3.5558    1.1087 H         1 <0>         0.0743
     25 C16        -1.5436    3.5787    2.5069 C.3       1 <0>        -0.1146
     26 H3         -2.1720    5.4344    3.4019 H         1 <0>         0.0598
     27 H4         -0.7318    5.5686    2.3630 H         1 <0>         0.0613
     28 H5         -3.5716    5.0022    1.3942 H         1 <0>         0.0617
     29 H6         -2.7275    6.5653    1.2674 H         1 <0>         0.0611
     30 H7         -0.9626    5.4984   -0.1088 H         1 <0>         0.0638
     31 H8         -2.5651    5.2984   -0.8547 H         1 <0>         0.0627
     32 H9         -0.1462    3.6304   -1.4157 H         1 <0>         0.0896
     33 H10        -1.7355    3.2560   -2.1303 H         1 <0>         0.0658
     34 H11        -2.0961    2.2079   -3.2787 H         1 <0>         0.3956
     35 H12         0.0050   -0.0052    0.0001 H         1 <0>         0.0829
     36 H13         1.0045    1.4706    0.0031 H         1 <0>         0.0847
     37 H14        -1.7345    1.1212    1.3078 H         1 <0>         0.0664
     38 H15        -0.1757    1.2964    2.1479 H         1 <0>         0.0733
     39 H16        -2.5219    3.1100    2.6134 H         1 <0>         0.0619
     40 H17        -0.9149    3.3016    3.3531 H         1 <0>         0.0624
     41 O2         -4.3327   -0.5051   -8.5141 O.co2     1 <0>        -0.7132
@<TRIPOS>BOND
     1    1   25 1
     2    1    2 1
     3    1   26 1
     4    1   27 1
     5    2    3 1
     6    2   28 1
     7    2   29 1
     8    3    4 1
     9    3   30 1
    10    3   31 1
    11    4    5 1
    12    4   23 1
    13    4    6 1
    14    6    7 1
    15    6   32 1
    16    6   33 1
    17    7    8 2
    18    7   21 1
    19    8    9 1
    20    9   10 1
    21    9   34 1
    22   10   15 ar
    23   10   11 ar
    24   11   12 ar
    25   11   20 1
    26   12   13 ar
    27   12   18 1
    28   13   14 ar
    29   14   15 ar
    30   14   17 1
    31   15   16 1
    32   18   19 2
    33   18   41 1
    34   21   22 1
    35   21   35 1
    36   21   36 1
    37   22   23 1
    38   22   37 1
    39   22   38 1
    40   23   24 1
    41   23   25 1
    42   25   39 1
    43   25   40 1
@<TRIPOS>MOLECULE
ZINC26464922
   39    41     0     0     0
SMALL
USER_CHARGES
(2E,5E)-5-[(3,5-dibromo-2-hydroxy-phenyl)methylene]-2-(4-ethoxyphenyl)imino-thiazolidin-4-one
@<TRIPOS>ATOM
      1 C1         -6.7019   10.4073    1.8153 C.3       1 <0>        -0.1536
      2 C2         -6.0500    9.0234    1.8429 C.3       1 <0>         0.0508
      3 O1         -6.7808    8.1356    0.9945 O.3       1 <0>        -0.3160
      4 C3         -6.3298    6.8558    0.9056 C.ar      1 <0>         0.1158
      5 C4         -6.9943    5.9426    0.0987 C.ar      1 <0>        -0.1314
      6 C5         -6.5403    4.6436    0.0050 C.ar      1 <0>        -0.0692
      7 C6         -5.4103    4.2477    0.7236 C.ar      1 <0>         0.0753
      8 C7         -4.7484    5.1684    1.5386 C.ar      1 <0>        -0.1338
      9 C8         -5.2062    6.4668    1.6216 C.ar      1 <0>        -0.1840
     10 N1         -4.9558    2.9588    0.6336 N.2       1 <0>        -0.4854
     11 C9         -3.6726    2.7241    0.4790 C.2       1 <0>         0.3931
     12 N2         -2.6401    3.6328    0.3866 N.am      1 <0>        -0.7062
     13 C10        -1.3923    3.2215    0.2370 C.2       1 <0>         0.5496
     14 O2         -0.4677    4.0094    0.1605 O.2       1 <0>        -0.4792
     15 C11        -1.1721    1.7648    0.1621 C.2       1 <0>        -0.3016
     16 C12        -0.0126    1.0758    0.0080 C.2       1 <0>         0.1668
     17 C13         1.2336    1.7931   -0.2882 C.ar      1 <0>        -0.2525
     18 C14         1.2363    2.8518   -1.2041 C.ar      1 <0>         0.0588
     19 C15         2.4091    3.5247   -1.4725 C.ar      1 <0>        -0.2172
     20 C16         3.5889    3.1501   -0.8484 C.ar      1 <0>         0.0101
     21 C17         3.6018    2.1025    0.0536 C.ar      1 <0>        -0.2181
     22 C18         2.4314    1.4178    0.3411 C.ar      1 <0>         0.3308
     23 O3          2.4430    0.3895    1.2274 O.3       1 <0>        -0.6611
     24 Br1         5.2189    1.6030    0.8971 Br        1 <0>        -0.0780
     25 Br2         2.4101    4.9601   -2.7035 Br        1 <0>        -0.0923
     26 S1         -2.8411    1.1506    0.3366 S.3       1 <0>         0.0551
     27 H1         -6.1393   11.0907    2.4684 H         1 <0>         0.0789
     28 H2         -7.7398   10.3309    2.1717 H         1 <0>         0.0663
     29 H3         -6.6953   10.7953    0.7860 H         1 <0>         0.0669
     30 H4         -5.0121    9.0998    1.4865 H         1 <0>         0.0635
     31 H5         -6.0566    8.6354    2.8722 H         1 <0>         0.0625
     32 H6         -7.8683    6.2496   -0.4564 H         1 <0>         0.1355
     33 H7         -7.0577    3.9339   -0.6234 H         1 <0>         0.1381
     34 H8         -3.8767    4.8654    2.0996 H         1 <0>         0.1261
     35 H9         -4.6924    7.1807    2.2483 H         1 <0>         0.1301
     36 H10        -2.8504    4.7113    0.4372 H         1 <0>         0.4327
     37 H11        -0.0068   -0.0199    0.1051 H         1 <0>         0.1455
     38 H12         0.3202    3.1440   -1.6960 H         1 <0>         0.1111
     39 H13         4.5039    3.6799   -1.0685 H         1 <0>         0.1164
@<TRIPOS>BOND
     1    1    2 1
     2    1   27 1
     3    1   28 1
     4    1   29 1
     5    2    3 1
     6    2   30 1
     7    2   31 1
     8    3    4 1
     9    4    9 ar
    10    4    5 ar
    11    5    6 ar
    12    5   32 1
    13    6    7 ar
    14    6   33 1
    15    7    8 ar
    16    7   10 1
    17    8    9 ar
    18    8   34 1
    19    9   35 1
    20   10   11 2
    21   11   26 1
    22   11   12 1
    23   12   13 am
    24   12   36 1
    25   13   14 2
    26   13   15 1
    27   15   16 2
    28   15   26 1
    29   16   17 1
    30   16   37 1
    31   17   22 ar
    32   17   18 ar
    33   18   19 ar
    34   18   38 1
    35   19   20 ar
    36   19   25 1
    37   20   21 ar
    38   20   39 1
    39   21   22 ar
    40   21   24 1
    41   22   23 1
@<TRIPOS>MOLECULE
ZINC34954307
   54    58     0     0     0
SMALL
USER_CHARGES

@<TRIPOS>ATOM
      1 C1          0.8704    1.7271    0.7893 C.3       1 <0>        -0.1086
      2 C2          0.6601    0.2450    0.6154 C.ar      1 <0>        -0.0937
      3 C3          0.3125   -0.2633   -0.6222 C.ar      1 <0>        -0.1161
      4 C4          0.1196   -1.6228   -0.7818 C.ar      1 <0>        -0.0820
      5 C5          0.2747   -2.4741    0.2962 C.ar      1 <0>        -0.0680
      6 C6          0.6232   -1.9659    1.5337 C.ar      1 <0>        -0.0951
      7 C7          0.8203   -0.6069    1.6922 C.ar      1 <0>        -0.1219
      8 C8          0.0635   -3.9560    0.1225 C.3       1 <0>         0.2579
      9 H1         -0.4605   -4.1525   -0.8129 H         1 <0>         0.0876
     10 C9          1.3922   -4.6752    0.1347 C.2       1 <0>        -0.4639
     11 C10         2.5003   -4.4806   -0.8045 C.2       1 <0>         0.4707
     12 C11         2.3336   -3.5850   -1.9692 C.ar      1 <0>        -0.1034
     13 C12         2.9678   -2.3408   -1.9938 C.ar      1 <0>        -0.0790
     14 C13         2.8084   -1.5107   -3.0834 C.ar      1 <0>        -0.0924
     15 C14         2.0222   -1.9080   -4.1510 C.ar      1 <0>        -0.1180
     16 C15         1.3911   -3.1393   -4.1332 C.ar      1 <0>        -0.1222
     17 C16         1.5462   -3.9817   -3.0519 C.ar      1 <0>        -0.0659
     18 C17         0.8627   -5.3248   -3.0367 C.3       1 <0>        -0.1179
     19 C18         3.4914   -0.1676   -3.1116 C.3       1 <0>        -0.1093
     20 O1          3.5573   -5.0559   -0.6258 O.2       1 <0>        -0.4769
     21 C19         1.3618   -5.5338    1.1816 C.2       1 <0>         0.2861
     22 O2          2.3645   -6.3679    1.5407 O.3       1 <0>        -0.5906
     23 C20         0.0600   -5.4142    1.8697 C.2       1 <0>         0.5102
     24 O3         -0.2729   -6.0537    2.8476 O.2       1 <0>        -0.4816
     25 N1         -0.7024   -4.4926    1.2537 N.am      1 <0>        -0.5024
     26 C21        -1.9827   -4.1173    1.6214 C.2       1 <0>         0.4169
     27 N2         -2.7750   -3.2342    1.0598 N.2       1 <0>        -0.5434
     28 C22        -4.0128   -2.9665    1.5300 C.ar      1 <0>         0.1146
     29 C23        -4.9589   -2.0460    1.0225 C.ar      1 <0>        -0.0472
     30 C24        -6.1809   -1.8941    1.6235 C.ar      1 <0>        -0.1359
     31 C25        -6.5344   -2.6330    2.7458 C.ar      1 <0>         0.0952
     32 C26        -5.6320   -3.5434    3.2689 C.ar      1 <0>        -0.0860
     33 C27        -4.4058   -3.7009    2.6721 C.ar      1 <0>        -0.1602
     34 S1         -2.9809   -4.7175    2.9769 S.3       1 <0>         0.0620
     35 F1         -7.7454   -2.4647    3.3206 F         1 <0>        -0.1343
     36 H2          1.9145    1.9713    0.5940 H         1 <0>         0.0653
     37 H3          0.2335    2.2689    0.0901 H         1 <0>         0.0614
     38 H4          0.6151    2.0130    1.8097 H         1 <0>         0.0602
     39 H5          0.1913    0.4019   -1.4644 H         1 <0>         0.1147
     40 H6         -0.1527   -2.0197   -1.7486 H         1 <0>         0.1168
     41 H7          0.7441   -2.6310    2.3760 H         1 <0>         0.1081
     42 H8          1.0962   -0.2103    2.6581 H         1 <0>         0.1138
     43 H9          3.5812   -2.0294   -1.1612 H         1 <0>         0.1175
     44 H10         1.9005   -1.2539   -5.0017 H         1 <0>         0.1157
     45 H11         0.7790   -3.4431   -4.9695 H         1 <0>         0.1191
     46 H12        -0.1452   -5.2150   -2.6364 H         1 <0>         0.0709
     47 H13         0.8095   -5.7169   -4.0523 H         1 <0>         0.0635
     48 H14         1.4294   -6.0138   -2.4104 H         1 <0>         0.0719
     49 H15         4.5095   -0.2855   -3.4826 H         1 <0>         0.0649
     50 H16         2.9411    0.5062   -3.7682 H         1 <0>         0.0615
     51 H17         3.5177    0.2478   -2.1042 H         1 <0>         0.0646
     52 H18        -4.7154   -1.4557    0.1515 H         1 <0>         0.1411
     53 H19        -6.8849   -1.1837    1.2158 H         1 <0>         0.1421
     54 H20        -5.8911   -4.1260    4.1406 H         1 <0>         0.1417
@<TRIPOS>BOND
     1    1    2 1
     2    1   36 1
     3    1   37 1
     4    1   38 1
     5    2    7 ar
     6    2    3 ar
     7    3    4 ar
     8    3   39 1
     9    4    5 ar
    10    4   40 1
    11    5    6 ar
    12    5    8 1
    13    6    7 ar
    14    6   41 1
    15    7   42 1
    16    8   10 1
    17    8   25 1
    18    8    9 1
    19   10   21 2
    20   10   11 1
    21   11   20 2
    22   11   12 1
    23   12   17 ar
    24   12   13 ar
    25   13   14 ar
    26   13   43 1
    27   14   15 ar
    28   14   19 1
    29   15   16 ar
    30   15   44 1
    31   16   17 ar
    32   16   45 1
    33   17   18 1
    34   18   46 1
    35   18   47 1
    36   18   48 1
    37   19   49 1
    38   19   50 1
    39   19   51 1
    40   21   23 1
    41   21   22 1
    42   23   25 am
    43   23   24 2
    44   25   26 1
    45   26   34 1
    46   26   27 2
    47   27   28 1
    48   28   33 ar
    49   28   29 ar
    50   29   30 ar
    51   29   52 1
    52   30   31 ar
    53   30   53 1
    54   31   32 ar
    55   31   35 1
    56   32   33 ar
    57   32   54 1
    58   33   34 1
@<TRIPOS>MOLECULE
ZINC39898904
   51    55     0     0     0
SMALL
USER_CHARGES

@<TRIPOS>ATOM
      1 C1         -0.5132    1.6427   -0.5172 C.3       1 <0>        -0.1186
      2 C2         -0.4119    0.1392   -0.5358 C.ar      1 <0>        -0.0723
      3 C3         -0.0709   -0.5161   -1.7042 C.ar      1 <0>        -0.1205
      4 C4          0.0220   -1.8952   -1.7213 C.ar      1 <0>        -0.0870
      5 C5         -0.2256   -2.6190   -0.5699 C.ar      1 <0>        -0.1261
      6 C6         -0.5657   -1.9636    0.5987 C.ar      1 <0>        -0.0891
      7 C7         -0.6545   -0.5842    0.6169 C.ar      1 <0>        -0.1250
      8 C8         -0.1253   -4.1225   -0.5888 C.3       1 <0>         0.1804
      9 N1          1.2431   -4.5249   -0.2543 N.am      1 <0>        -0.5906
     10 C9          2.3402   -4.7215   -1.2106 C.3       1 <0>         0.2506
     11 H1          2.0842   -5.5100   -1.9184 H         1 <0>         0.1159
     12 C10         3.5367   -5.1272   -0.3943 C.2       1 <0>        -0.1711
     13 C11         4.8874   -5.4917   -0.3819 C.2       1 <0>         0.1235
     14 N2          5.2250   -5.7116    0.8736 N.2       1 <0>        -0.2365
     15 N3          4.2218   -5.5222    1.6547 N.pl3     1 <0>        -0.3300
     16 H2          4.2394   -5.6255    2.6190 H         1 <0>         0.4547
     17 C12         3.1276   -5.1529    0.9252 C.2       1 <0>        -0.0554
     18 C13         1.7119   -4.7720    0.9822 C.2       1 <0>         0.6002
     19 O1          1.0545   -4.6937    2.0024 O.2       1 <0>        -0.5105
     20 C14         5.7764   -5.6096   -1.5643 C.ar      1 <0>        -0.0280
     21 C15         5.3394   -6.2808   -2.7035 C.ar      1 <0>        -0.0722
     22 C16         6.1704   -6.3875   -3.8017 C.ar      1 <0>        -0.0425
     23 C17         7.4374   -5.8294   -3.7734 C.ar      1 <0>        -0.0829
     24 C18         7.8797   -5.1615   -2.6474 C.ar      1 <0>        -0.1316
     25 C19         7.0535   -5.0426   -1.5413 C.ar      1 <0>         0.1419
     26 O2          7.4857   -4.3812   -0.4358 O.3       1 <0>        -0.4872
     27 Cl1         5.6250   -7.2243   -5.2215 Cl        1 <0>        -0.0589
     28 C20         2.6237   -3.4371   -1.9461 C.ar      1 <0>        -0.0799
     29 C21         2.8066   -2.2625   -1.2399 C.ar      1 <0>        -0.0593
     30 C22         3.0662   -1.0838   -1.9132 C.ar      1 <0>        -0.0904
     31 C23         3.1436   -1.0788   -3.2945 C.ar      1 <0>        -0.0204
     32 C24         2.9610   -2.2550   -4.0015 C.ar      1 <0>        -0.0305
     33 C25         2.7064   -3.4350   -3.3256 C.ar      1 <0>        -0.0837
     34 Cl2         3.0573   -2.2503   -5.7348 Cl        1 <0>        -0.0429
     35 Cl3         3.4691    0.4016   -4.1407 Cl        1 <0>        -0.0453
     36 H3          0.4572    2.0691   -0.2632 H         1 <0>         0.0711
     37 H4         -0.8202    1.9984   -1.5007 H         1 <0>         0.0673
     38 H5         -1.2500    1.9480    0.2259 H         1 <0>         0.0668
     39 H6          0.1226    0.0493   -2.6038 H         1 <0>         0.1196
     40 H7          0.2878   -2.4073   -2.6343 H         1 <0>         0.1176
     41 H8         -0.7595   -2.5291    1.4982 H         1 <0>         0.1246
     42 H9         -0.9166   -0.0720    1.5308 H         1 <0>         0.1211
     43 H10        -0.8163   -4.5420    0.1423 H         1 <0>         0.1014
     44 H11        -0.3797   -4.4912   -1.5825 H         1 <0>         0.0979
     45 H12         4.3521   -6.7177   -2.7282 H         1 <0>         0.1391
     46 H13         8.0828   -5.9167   -4.6350 H         1 <0>         0.1416
     47 H14         8.8688   -4.7281   -2.6309 H         1 <0>         0.1437
     48 H15         7.9397   -4.9435    0.2066 H         1 <0>         0.3968
     49 H16         2.7461   -2.2661   -0.1616 H         1 <0>         0.1271
     50 H17         3.2082   -0.1665   -1.3611 H         1 <0>         0.1403
     51 H18         2.5678   -4.3536   -3.8763 H         1 <0>         0.1449
@<TRIPOS>BOND
     1    1    2 1
     2    1   36 1
     3    1   37 1
     4    1   38 1
     5    2    7 ar
     6    2    3 ar
     7    3    4 ar
     8    3   39 1
     9    4    5 ar
    10    4   40 1
    11    5    6 ar
    12    5    8 1
    13    6    7 ar
    14    6   41 1
    15    7   42 1
    16    8    9 1
    17    8   43 1
    18    8   44 1
    19    9   18 am
    20    9   10 1
    21   10   11 1
    22   10   12 1
    23   10   28 1
    24   12   17 2
    25   12   13 1
    26   13   14 2
    27   13   20 1
    28   14   15 1
    29   15   16 1
    30   15   17 1
    31   17   18 1
    32   18   19 2
    33   20   25 ar
    34   20   21 ar
    35   21   22 ar
    36   21   45 1
    37   22   23 ar
    38   22   27 1
    39   23   24 ar
    40   23   46 1
    41   24   25 ar
    42   24   47 1
    43   25   26 1
    44   26   48 1
    45   28   33 ar
    46   28   29 ar
    47   29   30 ar
    48   29   49 1
    49   30   31 ar
    50   30   50 1
    51   31   32 ar
    52   31   35 1
    53   32   33 ar
    54   32   34 1
    55   33   51 1
@<TRIPOS>MOLECULE
ZINC59386338
   37    41     0     0     0
SMALL
USER_CHARGES

@<TRIPOS>ATOM
      1 C1         -0.0165    1.3662    0.0096 C.ar      1 <0>        -0.1131
      2 C2          1.1564    2.1072    0.0023 C.ar      1 <0>        -0.0908
      3 C3          2.3729    1.4495   -0.0128 C.ar      1 <0>        -0.0654
      4 C4          2.4013    0.0775   -0.0204 C.ar      1 <0>        -0.1519
      5 C5          1.2274   -0.7100   -0.0134 C.ar      1 <0>         0.0762
      6 C6          0.0021   -0.0041    0.0020 C.ar      1 <0>        -0.0589
      7 N1          1.4193   -2.0467   -0.0227 N.2       1 <0>        -0.4764
      8 C7          2.6168   -2.5876   -0.0374 C.2       1 <0>         0.0633
      9 S1          3.6828   -1.1530   -0.0397 S.3       1 <0>         0.0903
     10 S2          3.0591   -4.2931   -0.0518 S.3       1 <0>         0.2752
     11 C8          4.8210   -4.2765   -0.0685 C.2       1 <0>        -0.0771
     12 C9          5.6245   -5.3774   -0.0882 C.2       1 <0>        -0.1500
     13 C10         6.9475   -4.9233   -0.0968 C.2       1 <0>        -0.1539
     14 C11         6.8936   -3.5431   -0.0818 C.2       1 <0>         0.0391
     15 O1          5.5921   -3.1772   -0.0698 O.3       1 <0>        -0.1361
     16 C12         8.0022   -2.6685   -0.0834 C.2       1 <0>         0.1740
     17 N2          7.8138   -1.3714   -0.0679 N.2       1 <0>        -0.4245
     18 C13         8.8868   -0.5250   -0.0694 C.ar      1 <0>         0.0289
     19 C14         9.9851   -0.7667    0.7672 C.ar      1 <0>        -0.1189
     20 C15        11.0604    0.0612    0.7811 C.ar      1 <0>        -0.0894
     21 C16        11.1136    1.2046   -0.0521 C.ar      1 <0>         0.1436
     22 C17         9.9937    1.4278   -0.8875 C.ar      1 <0>        -0.1667
     23 C18         8.9085    0.5927   -0.9100 C.ar      1 <0>        -0.0151
     24 S3         10.4494    2.9168   -1.7433 S.3       1 <0>        -0.1150
     25 C19        12.0429    3.1437   -0.9667 C.2       1 <0>         0.3719
     26 S4         13.2276    4.4216   -1.2281 S.3       1 <0>        -0.6803
     27 N3         12.1063    2.1153   -0.1506 N.2       1 <0>        -0.5743
     28 H1         -0.9658    1.8810    0.0259 H         1 <0>         0.1353
     29 H2          1.1198    3.1866    0.0081 H         1 <0>         0.1405
     30 H3          3.2948    2.0121   -0.0189 H         1 <0>         0.1370
     31 H4         -0.9293   -0.5509    0.0079 H         1 <0>         0.1335
     32 H5          5.3003   -6.4075   -0.0954 H         1 <0>         0.1640
     33 H6          7.8384   -5.5336   -0.1120 H         1 <0>         0.1675
     34 H7          9.0054   -3.0683   -0.0973 H         1 <0>         0.1401
     35 H8          9.9753   -1.6306    1.4152 H         1 <0>         0.1229
     36 H9         11.8891   -0.1556    1.4389 H         1 <0>         0.1267
     37 H10         8.0762    0.7974   -1.5671 H         1 <0>         0.1275
@<TRIPOS>BOND
     1    1    6 ar
     2    1    2 ar
     3    1   28 1
     4    2    3 ar
     5    2   29 1
     6    3    4 ar
     7    3   30 1
     8    4    9 1
     9    4    5 ar
    10    5    6 ar
    11    5    7 1
    12    6   31 1
    13    7    8 2
    14    8    9 1
    15    8   10 1
    16   10   11 1
    17   11   15 1
    18   11   12 2
    19   12   13 1
    20   12   32 1
    21   13   14 2
    22   13   33 1
    23   14   15 1
    24   14   16 1
    25   16   17 2
    26   16   34 1
    27   17   18 1
    28   18   23 ar
    29   18   19 ar
    30   19   20 ar
    31   19   35 1
    32   20   21 ar
    33   20   36 1
    34   21   27 1
    35   21   22 ar
    36   22   23 ar
    37   22   24 1
    38   23   37 1
    39   24   25 1
    40   25   26 1
    41   25   27 2
@<TRIPOS>MOLECULE
ZINC06172269
   58    61     0     0     0
SMALL
USER_CHARGES
4-[[3-isopropoxycarbonyl-4-methyl-2-(4-methylsulfanylphenyl)-9-oxo-7-thia-1,5-diazabicyclo[4.3.0]nona-3,5-dien-8-ylidene]methyl]benzoic acid
@<TRIPOS>ATOM
      1 C1          3.8395    3.6207   -1.1306 C.3       1 <0>        -0.0984
      2 C2          2.5308    4.3646   -1.0612 C.2       1 <0>         0.2508
      3 C3          1.3648    3.7116   -1.3454 C.2       1 <0>        -0.2857
      4 C4          0.0744    4.4949   -1.2700 C.3       1 <0>         0.2449
      5 H1         -0.5783    3.9974   -0.5526 H         1 <0>         0.0988
      6 N1          0.1714    5.9287   -0.8764 N.am      1 <0>        -0.5770
      7 C5         -0.8548    6.7804   -0.7509 C.2       1 <0>         0.5391
      8 O1         -1.9983    6.4199   -0.9563 O.2       1 <0>        -0.4307
      9 C6         -0.5542    8.1684   -0.3564 C.2       1 <0>        -0.2603
     10 C7         -1.3993    9.2122   -0.1629 C.2       1 <0>         0.1189
     11 C8         -2.8520    8.9938   -0.1776 C.ar      1 <0>        -0.1292
     12 C9         -3.6997    9.9555   -0.7418 C.ar      1 <0>        -0.0894
     13 C10        -5.0497    9.7489   -0.7593 C.ar      1 <0>        -0.0966
     14 C11        -5.5864    8.5828   -0.2051 C.ar      1 <0>        -0.0711
     15 C12        -4.7417    7.6244    0.3632 C.ar      1 <0>        -0.1006
     16 C13        -3.3909    7.8263    0.3776 C.ar      1 <0>        -0.0482
     17 C14        -7.0462    8.3635   -0.2195 C.2       1 <0>         0.4838
     18 O2         -7.5131    7.3507    0.2622 O.co2     1 <0>        -0.6246
     19 S1          1.2238    8.1036   -0.2023 S.3       1 <0>         0.1150
     20 C15         1.4454    6.3884   -0.6327 C.2       1 <0>         0.4130
     21 N2          2.5207    5.6485   -0.7240 N.2       1 <0>        -0.5263
     22 C16        -0.5905    4.4239   -2.6205 C.ar      1 <0>        -0.1034
     23 C17        -0.1683    5.2555   -3.6418 C.ar      1 <0>        -0.0818
     24 C18        -0.7720    5.1899   -4.8819 C.ar      1 <0>        -0.1342
     25 C19        -1.8120    4.2943   -5.1001 C.ar      1 <0>        -0.0726
     26 C20        -2.2371    3.4640   -4.0699 C.ar      1 <0>        -0.0976
     27 C21        -1.6252    3.5314   -2.8339 C.ar      1 <0>        -0.0467
     28 S2         -2.5902    4.2121   -6.6788 S.3       1 <0>        -0.1171
     29 C22        -1.7116    5.4545   -7.6663 C.3       1 <0>        -0.1440
     30 C23         1.3658    2.3528   -1.7031 C.2       1 <0>         0.5328
     31 O3          2.4210    1.7677   -1.8698 O.2       1 <0>        -0.5141
     32 O4          0.1966    1.6954   -1.8622 O.3       1 <0>        -0.3413
     33 C24         0.2724    0.3157   -2.2264 C.3       1 <0>         0.0825
     34 C25         0.3161   -0.5439   -0.9614 C.3       1 <0>        -0.1704
     35 C26        -0.9562   -0.0609   -3.0567 C.3       1 <0>        -0.1505
     36 H2          4.0258    3.3082   -2.1581 H         1 <0>         0.0956
     37 H3          4.6465    4.2734   -0.7974 H         1 <0>         0.0744
     38 H4          3.7930    2.7426   -0.4864 H         1 <0>         0.0943
     39 H5         -1.0039   10.2037    0.0020 H         1 <0>         0.1563
     40 H6         -3.2858   10.8582   -1.1662 H         1 <0>         0.1233
     41 H7         -5.7034   10.4887   -1.1973 H         1 <0>         0.1363
     42 H8         -5.1575    6.7243    0.7913 H         1 <0>         0.1297
     43 H9         -2.7387    7.0862    0.8173 H         1 <0>         0.1165
     44 H10         0.6370    5.9544   -3.4702 H         1 <0>         0.1093
     45 H11        -0.4390    5.8367   -5.6802 H         1 <0>         0.1215
     46 H12        -3.0453    2.7670   -4.2358 H         1 <0>         0.1302
     47 H13        -1.9553    2.8867   -2.0328 H         1 <0>         0.1327
     48 H14        -1.8258    6.4343   -7.2027 H         1 <0>         0.0841
     49 H15        -0.6536    5.1972   -7.7161 H         1 <0>         0.0819
     50 H16        -2.1275    5.4785   -8.6736 H         1 <0>         0.1090
     51 H17         1.1744    0.1440   -2.8137 H         1 <0>         0.0815
     52 H18         1.1915   -0.2756   -0.3699 H         1 <0>         0.0598
     53 H19        -0.5859   -0.3722   -0.3741 H         1 <0>         0.0652
     54 H20         0.3740   -1.5964   -1.2392 H         1 <0>         0.0715
     55 H21        -0.9874    0.5515   -3.9579 H         1 <0>         0.0651
     56 H22        -0.8984   -1.1133   -3.3344 H         1 <0>         0.0751
     57 H23        -1.8582    0.1108   -2.4694 H         1 <0>         0.0677
     58 O5         -7.8607    9.2867   -0.7670 O.co2     1 <0>        -0.7491
@<TRIPOS>BOND
     1    1    2 1
     2    1   36 1
     3    1   37 1
     4    1   38 1
     5    2   21 1
     6    2    3 2
     7    3    4 1
     8    3   30 1
     9    4    5 1
    10    4    6 1
    11    4   22 1
    12    6   20 1
    13    6    7 am
    14    7    8 2
    15    7    9 1
    16    9   10 2
    17    9   19 1
    18   10   11 1
    19   10   39 1
    20   11   16 ar
    21   11   12 ar
    22   12   13 ar
    23   12   40 1
    24   13   14 ar
    25   13   41 1
    26   14   15 ar
    27   14   17 1
    28   15   16 ar
    29   15   42 1
    30   16   43 1
    31   17   18 2
    32   17   58 1
    33   19   20 1
    34   20   21 2
    35   22   27 ar
    36   22   23 ar
    37   23   24 ar
    38   23   44 1
    39   24   25 ar
    40   24   45 1
    41   25   26 ar
    42   25   28 1
    43   26   27 ar
    44   26   46 1
    45   27   47 1
    46   28   29 1
    47   29   48 1
    48   29   49 1
    49   29   50 1
    50   30   31 2
    51   30   32 1
    52   32   33 1
    53   33   34 1
    54   33   35 1
    55   33   51 1
    56   34   52 1
    57   34   53 1
    58   34   54 1
    59   35   55 1
    60   35   56 1
    61   35   57 1
@<TRIPOS>MOLECULE
ZINC03846541
   61    65     0     0     0
SMALL
USER_CHARGES
3-[(3S)-3-(4-chlorophenyl)-3-(N-phenylanilino)propanoyl]-2-hydroxy-1-methyl-quinolin-4-one
@<TRIPOS>ATOM
      1 C1         -1.9142    1.2833   -3.2670 C.3       1 <0>         0.0724
      2 N1         -2.2188    2.6331   -2.7860 N.pl3     1 <0>        -0.5251
      3 C2         -1.3032    3.6401   -3.0179 C.ar      1 <0>         0.2191
      4 C3         -0.1127    3.3677   -3.6865 C.ar      1 <0>        -0.1978
      5 C4          0.7993    4.3763   -3.9085 C.ar      1 <0>        -0.0678
      6 C5          0.5482    5.6676   -3.4679 C.ar      1 <0>        -0.1835
      7 C6         -0.6208    5.9580   -2.7998 C.ar      1 <0>        -0.0326
      8 C7         -1.5527    4.9463   -2.5679 C.ar      1 <0>        -0.1960
      9 C8         -2.8144    5.2254   -1.8551 C.2       1 <0>         0.4312
     10 O1         -3.0793    6.3437   -1.4497 O.2       1 <0>        -0.5355
     11 C9         -3.7390    4.1005   -1.6543 C.2       1 <0>        -0.5173
     12 C10        -3.3807    2.8404   -2.1422 C.2       1 <0>         0.5176
     13 O2         -4.2225    1.8053   -1.9619 O.3       1 <0>        -0.6236
     14 C11        -4.9678    4.2892   -0.9797 C.2       1 <0>         0.4173
     15 O3         -5.7230    3.3519   -0.8201 O.2       1 <0>        -0.4805
     16 C12        -5.3397    5.6537   -0.4590 C.3       1 <0>        -0.1539
     17 C13        -6.7071    5.5837    0.2238 C.3       1 <0>         0.1957
     18 H1         -6.7229    4.8021    0.9976 H         1 <0>         0.1056
     19 C14        -7.0290    6.9200    0.8415 C.ar      1 <0>        -0.0808
     20 C15        -7.0981    8.0495    0.0475 C.ar      1 <0>        -0.0824
     21 C16        -7.3989    9.2745    0.6127 C.ar      1 <0>        -0.1112
     22 C17        -7.6198    9.3720    1.9750 C.ar      1 <0>        -0.0358
     23 C18        -7.5450    8.2421    2.7699 C.ar      1 <0>        -0.1136
     24 C19        -7.2497    7.0168    2.2028 C.ar      1 <0>        -0.0954
     25 Cl1        -7.9913   10.9113    2.6865 Cl        1 <0>        -0.0822
     26 N2         -7.7311    5.2444   -0.7674 N.pl3     1 <0>        -0.5682
     27 C20        -8.5523    4.1314   -0.5705 C.ar      1 <0>         0.2486
     28 C21        -8.4785    3.4130    0.6163 C.ar      1 <0>        -0.1690
     29 C22        -9.2948    2.3159    0.8094 C.ar      1 <0>        -0.0780
     30 C23       -10.1778    1.9263   -0.1810 C.ar      1 <0>        -0.1835
     31 C24       -10.2505    2.6363   -1.3655 C.ar      1 <0>        -0.0802
     32 C25        -9.4406    3.7372   -1.5633 C.ar      1 <0>        -0.1873
     33 C26        -7.8865    6.0339   -1.9096 C.ar      1 <0>         0.1587
     34 C27        -7.0443    5.8543   -2.9998 C.ar      1 <0>        -0.1083
     35 C28        -7.2035    6.6335   -4.1289 C.ar      1 <0>        -0.1142
     36 C29        -8.1933    7.5984   -4.1712 C.ar      1 <0>        -0.1225
     37 C30        -9.0302    7.7830   -3.0858 C.ar      1 <0>        -0.1221
     38 C31        -8.8798    7.0041   -1.9555 C.ar      1 <0>        -0.1162
     39 H2         -0.9346    1.2847   -3.7673 H         1 <0>         0.0774
     40 H3         -2.6893    0.9643   -3.9794 H         1 <0>         0.0673
     41 H4         -1.8900    0.5874   -2.4155 H         1 <0>         0.0678
     42 H5          0.0939    2.3665   -4.0350 H         1 <0>         0.1292
     43 H6          1.7191    4.1594   -4.4314 H         1 <0>         0.1203
     44 H7          1.2720    6.4482   -3.6498 H         1 <0>         0.1193
     45 H8         -0.8148    6.9637   -2.4571 H         1 <0>         0.1304
     46 H9         -4.5839    5.9875    0.2672 H         1 <0>         0.0932
     47 H10        -5.3838    6.3661   -1.2960 H         1 <0>         0.0934
     48 H11        -6.9213    7.9741   -1.0152 H         1 <0>         0.1337
     49 H12        -7.4572   10.1561   -0.0084 H         1 <0>         0.1294
     50 H13        -7.7170    8.3176    3.8335 H         1 <0>         0.1302
     51 H14        -7.1909    6.1348    2.8233 H         1 <0>         0.1306
     52 H15        -7.7860    3.7141    1.3884 H         1 <0>         0.1174
     53 H16        -9.2406    1.7592    1.7332 H         1 <0>         0.1137
     54 H17       -10.8119    1.0652   -0.0292 H         1 <0>         0.1097
     55 H18       -10.9412    2.3292   -2.1369 H         1 <0>         0.1119
     56 H19        -9.4973    4.2908   -2.4889 H         1 <0>         0.1128
     57 H20        -6.2683    5.1040   -2.9657 H         1 <0>         0.1309
     58 H21        -6.5516    6.4919   -4.9782 H         1 <0>         0.1214
     59 H22        -8.3127    8.2094   -5.0537 H         1 <0>         0.1190
     60 H23        -9.8022    8.5374   -3.1222 H         1 <0>         0.1200
     61 H24        -9.5333    7.1493   -1.1080 H         1 <0>         0.1197
@<TRIPOS>BOND
     1    1    2 1
     2    1   39 1
     3    1   40 1
     4    1   41 1
     5    2   12 1
     6    2    3 1
     7    3    8 ar
     8    3    4 ar
     9    4    5 ar
    10    4   42 1
    11    5    6 ar
    12    5   43 1
    13    6    7 ar
    14    6   44 1
    15    7    8 ar
    16    7   45 1
    17    8    9 1
    18    9   10 2
    19    9   11 1
    20   11   12 2
    21   11   14 1
    22   12   13 1
    23   14   15 2
    24   14   16 1
    25   16   17 1
    26   16   46 1
    27   16   47 1
    28   17   18 1
    29   17   19 1
    30   17   26 1
    31   19   24 ar
    32   19   20 ar
    33   20   21 ar
    34   20   48 1
    35   21   22 ar
    36   21   49 1
    37   22   23 ar
    38   22   25 1
    39   23   24 ar
    40   23   50 1
    41   24   51 1
    42   26   27 1
    43   26   33 1
    44   27   32 ar
    45   27   28 ar
    46   28   29 ar
    47   28   52 1
    48   29   30 ar
    49   29   53 1
    50   30   31 ar
    51   30   54 1
    52   31   32 ar
    53   31   55 1
    54   32   56 1
    55   33   38 ar
    56   33   34 ar
    57   34   35 ar
    58   34   57 1
    59   35   36 ar
    60   35   58 1
    61   36   37 ar
    62   36   59 1
    63   37   38 ar
    64   37   60 1
    65   38   61 1
@<TRIPOS>MOLECULE
ZINC35693616
   58    60     0     0     0
SMALL
USER_CHARGES

@<TRIPOS>ATOM
      1 C1         -4.0530   -2.4820   -2.8641 C.3       1 <0>        -0.1614
      2 C2         -4.3745   -1.0547   -2.4165 C.3       1 <0>         0.1310
      3 N1         -3.7455   -0.7965   -1.1189 N.pl3     1 <0>        -0.6333
      4 C3         -2.4036   -0.2119   -1.0587 C.3       1 <0>         0.1277
      5 C4         -2.5131    1.3137   -1.0213 C.3       1 <0>        -0.1674
      6 C5         -4.4194   -1.1050    0.0508 C.2       1 <0>         0.5039
      7 O1         -5.6854   -1.5859   -0.0032 O.3       1 <0>        -0.7015
      8 C6         -3.8168   -0.9271    1.2421 C.2       1 <0>        -0.4692
      9 C7         -4.4760   -1.3825    2.4745 C.2       1 <0>         0.2328
     10 C8         -5.6530   -2.0453    2.4345 C.2       1 <0>        -0.3044
     11 S1         -5.9691   -2.3398    4.1630 S.3       1 <0>         0.1312
     12 C9         -4.6005   -1.6088    4.8030 C.2       1 <0>         0.3374
     13 N2         -4.1909   -1.4609    6.0461 N.2       1 <0>        -0.5941
     14 C10        -3.0720   -0.8527    6.4048 C.2       1 <0>         0.3103
     15 C11        -2.2312   -0.3134    5.4503 C.2       1 <0>        -0.3946
     16 C12        -2.6359   -0.4445    3.9990 C.3       1 <0>         0.2640
     17 H1         -1.8388   -0.9717    3.4747 H         1 <0>         0.0726
     18 N3         -3.9119   -1.1532    3.7136 N.pl3     1 <0>        -0.5119
     19 C13        -2.7303    0.9422    3.4165 C.ar      1 <0>        -0.0614
     20 C14        -1.7638    1.3890    2.5350 C.ar      1 <0>        -0.0626
     21 C15        -1.8503    2.6609    2.0007 C.ar      1 <0>        -0.1179
     22 C16        -2.9035    3.4868    2.3476 C.ar      1 <0>        -0.1111
     23 C17        -3.8703    3.0412    3.2287 C.ar      1 <0>        -0.1189
     24 C18        -3.7873    1.7660    3.7595 C.ar      1 <0>        -0.0117
     25 Cl1        -5.0050    1.2031    4.8614 Cl        1 <0>        -0.0672
     26 C19        -1.0440    0.3335    5.8146 C.2       1 <0>         0.5352
     27 O2         -0.7196    0.3965    6.9877 O.2       1 <0>        -0.5505
     28 O3         -0.2580    0.8880    4.8654 O.3       1 <0>        -0.3494
     29 C20         1.0052    1.4043    5.2894 C.3       1 <0>         0.0838
     30 C21         2.0223    1.2586    4.1557 C.3       1 <0>        -0.1477
     31 C22         0.8557    2.8828    5.6536 C.3       1 <0>        -0.1653
     32 C23        -2.7126   -0.7471    7.8645 C.3       1 <0>        -0.0917
     33 H2         -4.5875   -2.7021   -3.7882 H         1 <0>         0.0493
     34 H3         -2.9804   -2.5767   -3.0335 H         1 <0>         0.0421
     35 H4         -4.3619   -3.1840   -2.0896 H         1 <0>         0.0601
     36 H5         -3.9917   -0.3481   -3.1529 H         1 <0>         0.0492
     37 H6         -5.4544   -0.9367   -2.3268 H         1 <0>         0.0737
     38 H7         -1.8948   -0.5618   -0.1605 H         1 <0>         0.0712
     39 H8         -1.8359   -0.5140   -1.9388 H         1 <0>         0.0532
     40 H9         -3.0808    1.6157   -0.1412 H         1 <0>         0.0640
     41 H10        -1.5146    1.7486   -0.9765 H         1 <0>         0.0507
     42 H11        -3.0219    1.6636   -1.9195 H         1 <0>         0.0453
     43 H12        -2.8492   -0.4499    1.2920 H         1 <0>         0.0946
     44 H13        -6.2476   -2.3241    1.5772 H         1 <0>         0.2337
     45 H14        -0.9408    0.7444    2.2640 H         1 <0>         0.1237
     46 H15        -1.0948    3.0097    1.3124 H         1 <0>         0.1208
     47 H16        -2.9704    4.4806    1.9301 H         1 <0>         0.1223
     48 H17        -4.6927    3.6866    3.4998 H         1 <0>         0.1234
     49 H18         1.3508    0.8485    6.1611 H         1 <0>         0.0751
     50 H19         1.7170    1.8777    3.3120 H         1 <0>         0.0637
     51 H20         3.0039    1.5788    4.5048 H         1 <0>         0.0690
     52 H21         2.0704    0.2157    3.8425 H         1 <0>         0.0615
     53 H22         0.5101    3.4385    4.7819 H         1 <0>         0.0609
     54 H23         0.1311    2.9865    6.4613 H         1 <0>         0.0596
     55 H24         1.8192    3.2766    5.9770 H         1 <0>         0.0633
     56 H25        -3.4869   -1.2247    8.4649 H         1 <0>         0.0625
     57 H26        -1.7583   -1.2437    8.0406 H         1 <0>         0.0862
     58 H27        -2.6324    0.3034    8.1439 H         1 <0>         0.0842
@<TRIPOS>BOND
     1    1    2 1
     2    1   33 1
     3    1   34 1
     4    1   35 1
     5    2    3 1
     6    2   36 1
     7    2   37 1
     8    3    4 1
     9    3    6 1
    10    4    5 1
    11    4   38 1
    12    4   39 1
    13    5   40 1
    14    5   41 1
    15    5   42 1
    16    6    7 1
    17    6    8 2
    18    8    9 1
    19    8   43 1
    20    9   18 1
    21    9   10 2
    22   10   11 1
    23   10   44 1
    24   11   12 1
    25   12   18 1
    26   12   13 2
    27   13   14 1
    28   14   15 2
    29   14   32 1
    30   15   16 1
    31   15   26 1
    32   16   17 1
    33   16   18 1
    34   16   19 1
    35   19   24 ar
    36   19   20 ar
    37   20   21 ar
    38   20   45 1
    39   21   22 ar
    40   21   46 1
    41   22   23 ar
    42   22   47 1
    43   23   24 ar
    44   23   48 1
    45   24   25 1
    46   26   27 2
    47   26   28 1
    48   28   29 1
    49   29   30 1
    50   29   31 1
    51   29   49 1
    52   30   50 1
    53   30   51 1
    54   30   52 1
    55   31   53 1
    56   31   54 1
    57   31   55 1
    58   32   56 1
    59   32   57 1
    60   32   58 1
@<TRIPOS>MOLECULE
ZINC39546074
   39    41     0     0     0
SMALL
USER_CHARGES

@<TRIPOS>ATOM
      1 C1          0.7504    0.0529   -1.1839 C.ar      1 <0>        -0.1393
      2 C2          1.9344    0.7638   -1.2096 C.ar      1 <0>        -0.0744
      3 C3          2.3729    1.4207   -0.0737 C.ar      1 <0>        -0.1060
      4 C4          1.6272    1.3668    1.0903 C.ar      1 <0>        -0.0744
      5 C5          0.4428    0.6568    1.1208 C.ar      1 <0>        -0.1241
      6 C6          0.0006   -0.0021   -0.0176 C.ar      1 <0>         0.1230
      7 O1         -1.1648   -0.7005    0.0099 O.3       1 <0>        -0.2284
      8 C7         -1.1006   -2.0541   -0.1027 C.ar      1 <0>         0.0851
      9 C8          0.1287   -2.6928   -0.1108 C.ar      1 <0>        -0.1561
     10 C9          0.1923   -4.0693   -0.2254 C.ar      1 <0>        -0.1390
     11 C10        -0.9687   -4.8123   -0.3326 C.ar      1 <0>        -0.1484
     12 C11        -2.1993   -4.1829   -0.3257 C.ar      1 <0>        -0.1960
     13 C12        -2.2714   -2.8028   -0.2044 C.ar      1 <0>         0.2716
     14 N1         -3.5163   -2.1638   -0.1905 N.2       1 <0>        -1.0675
     15 S1         -4.9063   -3.0558   -0.3115 S.o2      1 <0>         2.6045
     16 O2         -4.9080   -3.6308   -1.6110 O.2       1 <0>        -1.0171
     17 O3         -4.9886   -3.8417    0.8694 O.2       1 <0>        -1.0181
     18 C13        -6.2569   -1.9254   -0.2593 C.ar      1 <0>        -0.6686
     19 C14        -6.8300   -1.5719    0.9534 C.ar      1 <0>         0.0347
     20 C15        -7.8902   -0.6797    0.9470 C.ar      1 <0>        -0.1791
     21 C16        -8.3388   -0.1744   -0.2608 C.ar      1 <0>         0.2084
     22 N2         -7.7688   -0.5335   -1.3953 N.ar      1 <0>        -0.4941
     23 C17        -6.7542   -1.3760   -1.4252 C.ar      1 <0>         0.2142
     24 Cl1        -9.6665    0.9438   -0.2834 Cl        1 <0>        -0.0327
     25 C18        -0.8924   -6.3122   -0.4576 C.3       1 <0>         0.5070
     26 F1          0.4476   -6.7138   -0.4414 F         1 <0>        -0.1839
     27 F2         -1.5698   -6.9046    0.6135 F         1 <0>        -0.1799
     28 F3         -1.4840   -6.7105   -1.6611 F         1 <0>        -0.1798
     29 Br1         3.9943    2.3931   -0.1121 Br        1 <0>        -0.0579
     30 H1          0.4062   -0.4560   -2.0721 H         1 <0>         0.1410
     31 H2          2.5185    0.8065   -2.1171 H         1 <0>         0.1355
     32 H3          1.9716    1.8801    1.9760 H         1 <0>         0.1365
     33 H4         -0.1387    0.6144    2.0299 H         1 <0>         0.1415
     34 H5          1.0376   -2.1154   -0.0280 H         1 <0>         0.1260
     35 H6          1.1517   -4.5653   -0.2316 H         1 <0>         0.1261
     36 H7         -3.1046   -4.7658   -0.4099 H         1 <0>         0.1172
     37 H8         -6.4589   -1.9828    1.8807 H         1 <0>         0.1601
     38 H9         -8.3606   -0.3827    1.8727 H         1 <0>         0.1514
     39 H10        -6.3101   -1.6431   -2.3728 H         1 <0>         0.1810
@<TRIPOS>BOND
     1    1    6 ar
     2    1    2 ar
     3    1   30 1
     4    2    3 ar
     5    2   31 1
     6    3    4 ar
     7    3   29 1
     8    4    5 ar
     9    4   32 1
    10    5    6 ar
    11    5   33 1
    12    6    7 1
    13    7    8 1
    14    8   13 ar
    15    8    9 ar
    16    9   10 ar
    17    9   34 1
    18   10   11 ar
    19   10   35 1
    20   11   12 ar
    21   11   25 1
    22   12   13 ar
    23   12   36 1
    24   13   14 1
    25   14   15 1
    26   15   16 2
    27   15   17 2
    28   15   18 1
    29   18   23 ar
    30   18   19 ar
    31   19   20 ar
    32   19   37 1
    33   20   21 ar
    34   20   38 1
    35   21   22 ar
    36   21   24 1
    37   22   23 ar
    38   23   39 1
    39   25   26 1
    40   25   27 1
    41   25   28 1
@<TRIPOS>MOLECULE
ZINC43766886
   78    80     0     0     0
SMALL
USER_CHARGES

@<TRIPOS>ATOM
      1 C1          0.8357    1.6179   -2.0330 C.3       1 <0>        -0.1088
      2 C2          1.4214    1.1197   -0.7103 C.3       1 <0>        -0.3180
      3 H1          0.7971    0.3183   -0.3154 H         1 <0>         0.3073
      4 C3          2.8385    0.5932   -0.9461 C.3       1 <0>        -0.1286
      5 C4          2.9247   -0.0325   -2.3396 C.3       1 <0>        -0.1151
      6 C5          4.3033   -0.6687   -2.5286 C.3       1 <0>        -0.1141
      7 C6          4.3455   -1.4058   -3.8687 C.3       1 <0>        -0.0979
      8 C7          3.7747   -0.5040   -4.9649 C.3       1 <0>        -0.1494
      9 C8          5.7934   -1.7662   -4.2071 C.3       1 <0>        -0.1449
     10 C9          1.4664    2.2731    0.2941 C.3       1 <0>        -0.0529
     11 H2          2.2444    2.9837    0.0150 H         1 <0>         0.0232
     12 C10         0.0971    2.9801    0.3534 C.3       1 <0>        -0.2735
     13 C11        -0.4135    2.8247    1.8026 C.3       1 <0>        -0.0934
     14 C12         0.3233    1.5554    2.3237 C.3       1 <0>        -0.0660
     15 H3          0.3538    1.5096    3.4123 H         1 <0>         0.0560
     16 C13         1.7248    1.7341    1.7072 C.3       1 <0>        -0.0501
     17 C14         2.5401    0.4614    1.7046 C.3       1 <0>        -0.0958
     18 C15         1.7747   -0.6873    1.0480 C.3       1 <0>        -0.2121
     19 C16         0.4726   -0.9069    1.8260 C.3       1 <0>        -0.0466
     20 H4          0.7005   -1.0945    2.8752 H         1 <0>         0.0573
     21 C17        -0.3987    0.3509    1.7156 C.3       1 <0>        -0.1316
     22 H5         -1.3423    0.1965    2.2388 H         1 <0>         0.0672
     23 C18        -0.6782    0.6230    0.2600 C.2       1 <0>         0.4500
     24 O1         -0.2856   -0.1557   -0.5921 O.co2     1 <0>        -0.5784
     25 O2         -1.2970    1.6218   -0.0656 O.co2     1 <0>        -0.5678
     26 C19        -0.2790   -2.1046    1.2416 C.3       1 <0>        -0.0898
     27 C20        -0.9819   -2.8703    2.3675 C.3       1 <0>        -0.1057
     28 C21         0.0667   -3.4722    3.3045 C.3       1 <0>        -0.1210
     29 C22         0.9111   -4.4982    2.5469 C.3       1 <0>         0.0991
     30 H6          0.2594   -5.2580    2.1156 H         1 <0>         0.0843
     31 C23         1.6852   -3.7938    1.4278 C.3       1 <0>        -0.1973
     32 C24         0.7002   -3.0375    0.5641 C.2       1 <0>         0.3843
     33 O3          0.6954   -3.1752   -0.6357 O.2       1 <0>        -0.4323
     34 O4          1.8322   -5.1160    3.4480 O.3       1 <0>        -0.3452
     35 C25         2.2678   -6.3444    3.1269 C.2       1 <0>         0.4549
     36 O5          1.8101   -6.9156    2.1656 O.2       1 <0>        -0.5107
     37 C26         3.3279   -7.0110    3.9653 C.3       1 <0>        -0.1469
     38 C27        -1.3119   -1.6164    0.2240 C.3       1 <0>        -0.1410
     39 C28         2.4888    2.7899    2.5086 C.3       1 <0>        -0.1379
     40 H7          1.4601    2.4194   -2.4279 H         1 <0>        -0.0061
     41 H8          0.8037    0.7963   -2.7485 H         1 <0>         0.0361
     42 H9         -0.1738    1.9930   -1.8650 H         1 <0>         0.0619
     43 H10         3.5489    1.4167   -0.8730 H         1 <0>         0.0173
     44 H11         3.0762   -0.1595   -0.1945 H         1 <0>         0.0719
     45 H12         2.1546   -0.7969   -2.4430 H         1 <0>         0.0658
     46 H13         2.7742    0.7393   -3.0944 H         1 <0>         0.0568
     47 H14         5.0670    0.1090   -2.5175 H         1 <0>         0.0492
     48 H15         4.4917   -1.3745   -1.7196 H         1 <0>         0.0527
     49 H16         3.7506   -2.3167   -3.8012 H         1 <0>         0.0679
     50 H17         4.4170    0.3679   -5.0891 H         1 <0>         0.0480
     51 H18         3.7280   -1.0573   -5.9029 H         1 <0>         0.0453
     52 H19         2.7727   -0.1800   -4.6838 H         1 <0>         0.0662
     53 H20         6.1716   -2.4781   -3.4735 H         1 <0>         0.0498
     54 H21         5.8339   -2.2124   -5.2008 H         1 <0>         0.0488
     55 H22         6.4061   -0.8649   -4.1883 H         1 <0>         0.0499
     56 H23         0.2107    4.0361    0.1083 H         1 <0>        -0.0066
     57 H24        -0.5980    2.5075   -0.3405 H         1 <0>         0.2703
     58 H25        -0.1430    3.6960    2.3991 H         1 <0>         0.0179
     59 H26        -1.4927    2.6723    1.8138 H         1 <0>         0.0620
     60 H27         3.4666    0.6323    1.1563 H         1 <0>         0.0592
     61 H28         2.7799    0.1891    2.7324 H         1 <0>         0.0353
     62 H29         1.5457   -0.4321    0.0134 H         1 <0>         0.1922
     63 H30         2.3777   -1.5948    1.0780 H         1 <0>         0.0387
     64 H31        -1.6208   -2.1876    2.9277 H         1 <0>         0.0827
     65 H32        -1.5888   -3.6686    1.9405 H         1 <0>         0.0650
     66 H33         0.7126   -2.6795    3.6823 H         1 <0>         0.0848
     67 H34        -0.4327   -3.9608    4.1411 H         1 <0>         0.0741
     68 H35         2.4025   -3.0969    1.8613 H         1 <0>         0.1101
     69 H36         2.2093   -4.5340    0.8231 H         1 <0>         0.0848
     70 H37         2.8537   -7.6560    4.7051 H         1 <0>         0.1031
     71 H38         3.9757   -7.6087    3.3241 H         1 <0>         0.1016
     72 H39         3.9210   -6.2505    4.4732 H         1 <0>         0.0932
     73 H40        -0.8559   -1.5747   -0.7651 H         1 <0>         0.1426
     74 H41        -2.1572   -2.3044    0.2057 H         1 <0>        -0.0184
     75 H42        -1.6586   -0.6224    0.5065 H         1 <0>         0.0835
     76 H43         1.9071    3.7110    2.5434 H         1 <0>         0.0495
     77 H44         2.6548    2.4265    3.5228 H         1 <0>         0.0405
     78 H45         3.4490    2.9844    2.0307 H         1 <0>         0.0418
@<TRIPOS>BOND
     1    1    2 1
     2    1   40 1
     3    1   41 1
     4    1   42 1
     5    2    3 1
     6    2    4 1
     7    2   10 1
     8    4    5 1
     9    4   43 1
    10    4   44 1
    11    5    6 1
    12    5   45 1
    13    5   46 1
    14    6    7 1
    15    6   47 1
    16    6   48 1
    17    7    8 1
    18    7    9 1
    19    7   49 1
    20    8   50 1
    21    8   51 1
    22    8   52 1
    23    9   53 1
    24    9   54 1
    25    9   55 1
    26   10   11 1
    27   10   16 1
    28   10   12 1
    29   12   13 1
    30   12   56 1
    31   12   57 1
    32   13   14 1
    33   13   58 1
    34   13   59 1
    35   14   15 1
    36   14   21 1
    37   14   16 1
    38   16   17 1
    39   16   39 1
    40   17   18 1
    41   17   60 1
    42   17   61 1
    43   18   19 1
    44   18   62 1
    45   18   63 1
    46   19   20 1
    47   19   21 1
    48   19   26 1
    49   21   22 1
    50   21   23 1
    51   23   24 2
    52   23   25 1
    53   26   32 1
    54   26   27 1
    55   26   38 1
    56   27   28 1
    57   27   64 1
    58   27   65 1
    59   28   29 1
    60   28   66 1
    61   28   67 1
    62   29   30 1
    63   29   31 1
    64   29   34 1
    65   31   32 1
    66   31   68 1
    67   31   69 1
    68   32   33 2
    69   34   35 1
    70   35   36 2
    71   35   37 1
    72   37   70 1
    73   37   71 1
    74   37   72 1
    75   38   73 1
    76   38   74 1
    77   38   75 1
    78   39   76 1
    79   39   77 1
    80   39   78 1
@<TRIPOS>MOLECULE
ZINC08934467
   54    57     0     0     0
SMALL
USER_CHARGES

@<TRIPOS>ATOM
      1 C1          0.3327    1.8369    0.4240 C.ar      1 <0>        -0.1219
      2 C2          1.5537    2.2644   -0.0630 C.ar      1 <0>        -0.1254
      3 C3          2.5680    1.3514   -0.2834 C.ar      1 <0>        -0.1074
      4 C4          2.3614    0.0109   -0.0164 C.ar      1 <0>        -0.0418
      5 C5          1.1407   -0.4165    0.4714 C.ar      1 <0>        -0.0701
      6 C6          0.1259    0.4963    0.6906 C.ar      1 <0>        -0.1202
      7 C7          3.4668   -0.9845   -0.2577 C.3       1 <0>        -0.0926
      8 H1          4.3480   -0.4695   -0.6403 H         1 <0>         0.1275
      9 C8          3.0080   -2.0245   -1.2591 C.2       1 <0>         0.0689
     10 S1          1.6565   -1.8392   -2.0933 S.2       1 <0>        -0.2525
     11 C9          3.8844   -3.2472   -1.4369 C.3       1 <0>        -0.0855
     12 H2          3.3559   -3.9954   -2.0276 H         1 <0>         0.1158
     13 C10         4.1986   -3.8058   -0.0723 C.2       1 <0>         0.4159
     14 O1          4.5029   -4.9854    0.0361 O.2       1 <0>        -0.5490
     15 C11         4.1506   -3.0179    1.0517 C.2       1 <0>        -0.5396
     16 C12         3.8084   -1.6873    1.0317 C.2       1 <0>         0.4091
     17 O2          3.7798   -1.0599    2.0811 O.3       1 <0>        -0.5567
     18 C13         4.4921   -3.6462    2.3783 C.3       1 <0>         0.0744
     19 H3          4.3073   -4.7193    2.3303 H         1 <0>         0.0930
     20 C14         5.9456   -3.4003    2.6913 C.ar      1 <0>         0.0026
     21 C15         6.4024   -2.1099    2.8841 C.ar      1 <0>        -0.1140
     22 C16         7.7356   -1.8843    3.1712 C.ar      1 <0>        -0.0584
     23 C17         8.6120   -2.9492    3.2659 C.ar      1 <0>        -0.0647
     24 C18         8.1551   -4.2396    3.0740 C.ar      1 <0>        -0.0566
     25 C19         6.8210   -4.4655    2.7911 C.ar      1 <0>        -0.1110
     26 N1         10.0398   -2.7075    3.5724 N.pl3     1 <0>         0.0416
     27 O3         10.4396   -1.5789    3.7399 O.2       1 <0>        -0.1715
     28 O4         10.8063   -3.6388    3.6552 O.3       1 <0>        -0.1746
     29 C20         3.6226   -3.0274    3.4746 C.3       1 <0>         0.1013
     30 C21         2.2097   -3.0727    3.0642 C.1       1 <0>         0.2449
     31 N2          1.1192   -3.1076    2.7475 N.1       1 <0>        -0.4245
     32 C22         3.7951   -3.7858    4.7243 C.1       1 <0>         0.2119
     33 N3          3.9282   -4.3712    5.6887 N.1       1 <0>        -0.4222
     34 C23         5.1626   -2.8591   -2.1346 C.ar      1 <0>        -0.0531
     35 C24         6.0103   -1.9315   -1.5585 C.ar      1 <0>        -0.1146
     36 C25         7.1828   -1.5755   -2.1985 C.ar      1 <0>        -0.1178
     37 C26         7.5077   -2.1474   -3.4143 C.ar      1 <0>        -0.1221
     38 C27         6.6603   -3.0756   -3.9900 C.ar      1 <0>        -0.1197
     39 C28         5.4900   -3.4348   -3.3480 C.ar      1 <0>        -0.1034
     40 H4         -0.4582    2.5508    0.6005 H         1 <0>         0.1143
     41 H5          1.7152    3.3117   -0.2716 H         1 <0>         0.1156
     42 H6          3.5217    1.6854   -0.6646 H         1 <0>         0.1139
     43 H7          0.9790   -1.4639    0.6794 H         1 <0>         0.1142
     44 H8         -0.8279    0.1623    1.0714 H         1 <0>         0.1151
     45 H9          5.7177   -1.2780    2.8102 H         1 <0>         0.1670
     46 H10         8.0926   -0.8761    3.3212 H         1 <0>         0.1472
     47 H11         8.8399   -5.0715    3.1475 H         1 <0>         0.1460
     48 H12         6.4632   -5.4740    2.6448 H         1 <0>         0.1441
     49 H13         3.9216   -1.9914    3.6341 H         1 <0>         0.1900
     50 H14         5.7565   -1.4847   -0.6086 H         1 <0>         0.1292
     51 H15         7.8447   -0.8503   -1.7487 H         1 <0>         0.1217
     52 H16         8.4233   -1.8687   -3.9147 H         1 <0>         0.1199
     53 H17         6.9140   -3.5221   -4.9401 H         1 <0>         0.1219
     54 H18         4.8298   -4.1627   -3.7959 H         1 <0>         0.1242
@<TRIPOS>BOND
     1    1    6 ar
     2    1    2 ar
     3    1   40 1
     4    2    3 ar
     5    2   41 1
     6    3    4 ar
     7    3   42 1
     8    4    5 ar
     9    4    7 1
    10    5    6 ar
    11    5   43 1
    12    6   44 1
    13    7    8 1
    14    7   16 1
    15    7    9 1
    16    9   10 2
    17    9   11 1
    18   11   12 1
    19   11   13 1
    20   11   34 1
    21   13   14 2
    22   13   15 1
    23   15   16 2
    24   15   18 1
    25   16   17 1
    26   18   19 1
    27   18   20 1
    28   18   29 1
    29   20   25 ar
    30   20   21 ar
    31   21   22 ar
    32   21   45 1
    33   22   23 ar
    34   22   46 1
    35   23   24 ar
    36   23   26 1
    37   24   25 ar
    38   24   47 1
    39   25   48 1
    40   26   27 2
    41   26   28 1
    42   29   30 1
    43   29   32 1
    44   29   49 1
    45   30   31 3
    46   32   33 3
    47   34   39 ar
    48   34   35 ar
    49   35   36 ar
    50   35   50 1
    51   36   37 ar
    52   36   51 1
    53   37   38 ar
    54   37   52 1
    55   38   39 ar
    56   38   53 1
    57   39   54 1
@<TRIPOS>MOLECULE
ZINC33535181
   71    74     0     0     0
SMALL
USER_CHARGES
(4E,5R)-5-(4-tert-butylphenyl)-4-[hydroxy-(4-propoxyphenyl)methylene]-1-phenethyl-pyrrolidine-2,3-dione
@<TRIPOS>ATOM
      1 C1          7.7434    7.4008    8.4362 C.3       1 <0>        -0.1510
      2 C2          6.8115    6.1932    8.5551 C.3       1 <0>        -0.1234
      3 C3          6.5185    5.6360    7.1606 C.3       1 <0>         0.0566
      4 O1          5.6481    4.5080    7.2716 O.3       1 <0>        -0.3202
      5 C4          5.2876    3.8922    6.1174 C.ar      1 <0>         0.1239
      6 C5          4.4424    2.7883    6.1556 C.ar      1 <0>        -0.1659
      7 C6          4.0735    2.1605    4.9880 C.ar      1 <0>        -0.0498
      8 C7          4.5509    2.6346    3.7600 C.ar      1 <0>        -0.1082
      9 C8          5.4066    3.7424    3.7275 C.ar      1 <0>        -0.0135
     10 C9          5.7649    4.3667    4.9003 C.ar      1 <0>        -0.2146
     11 C10         4.1597    1.9673    2.5089 C.2       1 <0>         0.4014
     12 C11         3.6479    2.7086    1.4614 C.2       1 <0>        -0.4969
     13 C12         3.3295    2.2138    0.0695 C.3       1 <0>         0.2649
     14 H1          4.2189    1.8127   -0.4386 H         1 <0>         0.0685
     15 N1          2.8122    3.3645   -0.6767 N.am      1 <0>        -0.6000
     16 C13         2.8035    4.4395    0.1293 C.2       1 <0>         0.4757
     17 O2          2.4296    5.5484   -0.1939 O.2       1 <0>        -0.5346
     18 C14         3.3187    4.0720    1.4759 C.2       1 <0>         0.3684
     19 O3          3.4345    4.8248    2.4262 O.3       1 <0>        -0.4995
     20 C15         2.3749    3.3454   -2.0748 C.3       1 <0>         0.1409
     21 C16         0.8832    3.0112   -2.1381 C.3       1 <0>        -0.1127
     22 C17         0.4334    2.9916   -3.5763 C.ar      1 <0>        -0.0698
     23 C18        -0.0423    4.1470   -4.1675 C.ar      1 <0>        -0.1160
     24 C19        -0.4500    4.1302   -5.4883 C.ar      1 <0>        -0.1202
     25 C20        -0.3922    2.9555   -6.2146 C.ar      1 <0>        -0.1297
     26 C21         0.0781    1.7987   -5.6217 C.ar      1 <0>        -0.1201
     27 C22         0.4911    1.8168   -4.3026 C.ar      1 <0>        -0.1134
     28 C23         2.2857    1.1288    0.1337 C.ar      1 <0>        -0.0629
     29 C24         0.9583    1.4577    0.3358 C.ar      1 <0>        -0.0984
     30 C25         0.0007    0.4624    0.3938 C.ar      1 <0>        -0.1260
     31 C26         0.3707   -0.8619    0.2515 C.ar      1 <0>        -0.0817
     32 C27         1.6983   -1.1909    0.0512 C.ar      1 <0>        -0.1260
     33 C28         2.6558   -0.1956   -0.0077 C.ar      1 <0>        -0.0775
     34 C29        -0.6732   -1.9469    0.3152 C.3       1 <0>        -0.0252
     35 C30        -1.7032   -1.7295   -0.7951 C.3       1 <0>        -0.1364
     36 C31        -0.0038   -3.3101    0.1301 C.3       1 <0>        -0.1429
     37 C32        -1.3725   -1.9026    1.6753 C.3       1 <0>        -0.1386
     38 O4          4.3009    0.6303    2.3841 O.2       1 <0>        -0.6289
     39 H2          7.9541    7.8014    9.4387 H         1 <0>         0.0619
     40 H3          7.2608    8.1776    7.8249 H         1 <0>         0.0582
     41 H4          8.6853    7.0916    7.9595 H         1 <0>         0.0573
     42 H5          7.2941    5.4164    9.1664 H         1 <0>         0.0715
     43 H6          5.8696    6.5024    9.0318 H         1 <0>         0.0722
     44 H7          6.0359    6.4128    6.5493 H         1 <0>         0.0620
     45 H8          7.4604    5.3269    6.6839 H         1 <0>         0.0599
     46 H9          4.0747    2.4234    7.1033 H         1 <0>         0.1233
     47 H10         3.4172    1.3034    5.0187 H         1 <0>         0.1260
     48 H11         5.7813    4.1090    2.7832 H         1 <0>         0.1196
     49 H12         6.4213    5.2240    4.8760 H         1 <0>         0.1205
     50 H13         2.5489    4.3330   -2.5269 H         1 <0>         0.0783
     51 H14         2.9450    2.5838   -2.6270 H         1 <0>         0.0770
     52 H15         0.7092    2.0236   -1.6860 H         1 <0>         0.0946
     53 H16         0.3130    3.7728   -1.5859 H         1 <0>         0.0742
     54 H17        -0.0916    5.0638   -3.5987 H         1 <0>         0.1216
     55 H18        -0.8171    5.0341   -5.9516 H         1 <0>         0.1185
     56 H19        -0.7142    2.9415   -7.2454 H         1 <0>         0.1170
     57 H20         0.1233    0.8809   -6.1891 H         1 <0>         0.1187
     58 H21         0.8586    0.9130   -3.8394 H         1 <0>         0.1218
     59 H22         0.6692    2.4923    0.4466 H         1 <0>         0.1094
     60 H23        -1.0371    0.7198    0.5457 H         1 <0>         0.1094
     61 H24         1.9874   -2.2256   -0.0596 H         1 <0>         0.1168
     62 H25         3.6930   -0.4526   -0.1645 H         1 <0>         0.1175
     63 H26        -2.4652   -2.5215   -0.7486 H         1 <0>         0.0522
     64 H27        -1.2004   -1.7613   -1.7730 H         1 <0>         0.0546
     65 H28        -2.1845   -0.7494   -0.6620 H         1 <0>         0.0555
     66 H29        -0.7658   -4.1021    0.1766 H         1 <0>         0.0520
     67 H30         0.7367   -3.4664    0.9284 H         1 <0>         0.0595
     68 H31         0.4990   -3.3419   -0.8478 H         1 <0>         0.0573
     69 H32        -2.1345   -2.6946    1.7218 H         1 <0>         0.0523
     70 H33        -1.8538   -0.9225    1.8084 H         1 <0>         0.0557
     71 H34        -0.6320   -2.0589    2.4736 H         1 <0>         0.0573
@<TRIPOS>BOND
     1    1    2 1
     2    1   39 1
     3    1   40 1
     4    1   41 1
     5    2    3 1
     6    2   42 1
     7    2   43 1
     8    3    4 1
     9    3   44 1
    10    3   45 1
    11    4    5 1
    12    5   10 ar
    13    5    6 ar
    14    6    7 ar
    15    6   46 1
    16    7    8 ar
    17    7   47 1
    18    8    9 ar
    19    8   11 1
    20    9   10 ar
    21    9   48 1
    22   10   49 1
    23   11   12 1
    24   11   38 2
    25   12   18 2
    26   12   13 1
    27   13   14 1
    28   13   15 1
    29   13   28 1
    30   15   16 am
    31   15   20 1
    32   16   17 2
    33   16   18 1
    34   18   19 1
    35   20   21 1
    36   20   50 1
    37   20   51 1
    38   21   22 1
    39   21   52 1
    40   21   53 1
    41   22   27 ar
    42   22   23 ar
    43   23   24 ar
    44   23   54 1
    45   24   25 ar
    46   24   55 1
    47   25   26 ar
    48   25   56 1
    49   26   27 ar
    50   26   57 1
    51   27   58 1
    52   28   33 ar
    53   28   29 ar
    54   29   30 ar
    55   29   59 1
    56   30   31 ar
    57   30   60 1
    58   31   32 ar
    59   31   34 1
    60   32   33 ar
    61   32   61 1
    62   33   62 1
    63   34   35 1
    64   34   36 1
    65   34   37 1
    66   35   63 1
    67   35   64 1
    68   35   65 1
    69   36   66 1
    70   36   67 1
    71   36   68 1
    72   37   69 1
    73   37   70 1
    74   37   71 1
@<TRIPOS>MOLECULE
ZINC35656498
   53    56     0     0     0
SMALL
USER_CHARGES

@<TRIPOS>ATOM
      1 C1         -0.0187    1.5258    0.0104 C.3       1 <0>        -0.1640
      2 C2          0.0021   -0.0041    0.0020 C.3       1 <0>         0.1007
      3 N1         -1.3723   -0.5112    0.0124 N.am      1 <0>        -0.5398
      4 C3         -1.9771   -0.7387    1.1661 C.2       1 <0>         0.5584
      5 O1         -1.4176   -0.5359    2.2283 O.2       1 <0>        -0.4975
      6 C4         -3.3577   -1.2478    1.1088 C.2       1 <0>        -0.2012
      7 C5         -4.2050   -1.5639    2.1266 C.2       1 <0>         0.0602
      8 C6         -5.5488   -2.0586    1.8321 C.ar      1 <0>        -0.1374
      9 C7         -6.0576   -3.2718    2.4750 C.ar      1 <0>         0.0124
     10 C8         -5.2817   -3.9943    3.3872 C.ar      1 <0>        -0.1190
     11 C9         -5.7927   -5.1195    3.9647 C.ar      1 <0>        -0.0979
     12 C10        -7.0774   -5.5595    3.6580 C.ar      1 <0>        -0.1329
     13 C11        -7.8590   -4.8794    2.7737 C.ar      1 <0>        -0.0870
     14 C12        -7.3645   -3.7157    2.1610 C.ar      1 <0>        -0.0859
     15 C13        -8.1439   -2.9868    1.2439 C.ar      1 <0>        -0.0456
     16 C14        -7.6580   -1.8621    0.6551 C.ar      1 <0>        -0.1917
     17 C15        -6.3801   -1.3803    0.9338 C.ar      1 <0>         0.1717
     18 O2         -5.9383   -0.2502    0.3275 O.3       1 <0>        -0.2885
     19 C16        -6.8366    0.3937   -0.5783 C.3       1 <0>         0.0521
     20 C17        -6.1678    1.6412   -1.1593 C.3       1 <0>        -0.1509
     21 S1         -3.6217   -1.3384   -0.6563 S.3       1 <0>         0.0029
     22 C18        -2.0224   -0.7404   -1.1781 C.2       1 <0>         0.3699
     23 N2         -1.5734   -0.5639   -2.4044 N.2       1 <0>        -0.4445
     24 C19        -2.3720   -0.8490   -3.4691 C.ar      1 <0>         0.0716
     25 C20        -3.1189   -2.0346   -3.4871 C.ar      1 <0>        -0.1534
     26 C21        -3.9190   -2.3201   -4.5532 C.ar      1 <0>        -0.0698
     27 C22        -3.9947   -1.4276   -5.6314 C.ar      1 <0>        -0.1220
     28 C23        -3.2476   -0.2418   -5.6132 C.ar      1 <0>        -0.0770
     29 C24        -2.4516    0.0459   -4.5446 C.ar      1 <0>        -0.1055
     30 C25        -4.8566   -1.7354   -6.7806 C.2       1 <0>         0.5175
     31 O3         -5.5087   -2.7710   -6.7966 O.co2     1 <0>        -0.6852
     32 O4         -4.9226   -0.9561   -7.7221 O.co2     1 <0>        -0.6854
     33 H1          1.0039    1.9031    0.0027 H         1 <0>         0.0739
     34 H2         -0.5459    1.8868   -0.8726 H         1 <0>         0.0636
     35 H3         -0.5289    1.8773    0.9072 H         1 <0>         0.0580
     36 H4          0.5123   -0.3556   -0.8948 H         1 <0>         0.0979
     37 H5          0.5293   -0.3651    0.8851 H         1 <0>         0.0923
     38 H6         -3.8844   -1.4492    3.1515 H         1 <0>         0.1515
     39 H7         -4.2834   -3.6635    3.6327 H         1 <0>         0.1285
     40 H8         -5.1926   -5.6766    4.6690 H         1 <0>         0.1246
     41 H9         -7.4599   -6.4535    4.1279 H         1 <0>         0.1231
     42 H10        -8.8535   -5.2328    2.5447 H         1 <0>         0.1283
     43 H11        -9.1410   -3.3255    1.0045 H         1 <0>         0.1338
     44 H12        -8.2806   -1.3251   -0.0452 H         1 <0>         0.1364
     45 H13        -7.0910   -0.2919   -1.3866 H         1 <0>         0.0698
     46 H14        -7.7437    0.6818   -0.0472 H         1 <0>         0.0622
     47 H15        -6.8529    2.1323   -1.8503 H         1 <0>         0.0798
     48 H16        -5.9134    2.3268   -0.3511 H         1 <0>         0.0626
     49 H17        -5.2606    1.3531   -1.6905 H         1 <0>         0.0710
     50 H18        -3.0603   -2.7224   -2.6565 H         1 <0>         0.1204
     51 H19        -4.4943   -3.2340   -4.5672 H         1 <0>         0.1307
     52 H20        -3.3058    0.4459   -6.4439 H         1 <0>         0.1340
     53 H21        -1.8791    0.9615   -4.5287 H         1 <0>         0.1222
@<TRIPOS>BOND
     1    1    2 1
     2    1   33 1
     3    1   34 1
     4    1   35 1
     5    2    3 1
     6    2   36 1
     7    2   37 1
     8    3   22 1
     9    3    4 am
    10    4    5 2
    11    4    6 1
    12    6    7 2
    13    6   21 1
    14    7    8 1
    15    7   38 1
    16    8   17 ar
    17    8    9 ar
    18    9   14 ar
    19    9   10 ar
    20   10   11 ar
    21   10   39 1
    22   11   12 ar
    23   11   40 1
    24   12   13 ar
    25   12   41 1
    26   13   14 ar
    27   13   42 1
    28   14   15 ar
    29   15   16 ar
    30   15   43 1
    31   16   17 ar
    32   16   44 1
    33   17   18 1
    34   18   19 1
    35   19   20 1
    36   19   45 1
    37   19   46 1
    38   20   47 1
    39   20   48 1
    40   20   49 1
    41   21   22 1
    42   22   23 2
    43   23   24 1
    44   24   29 ar
    45   24   25 ar
    46   25   26 ar
    47   25   50 1
    48   26   27 ar
    49   26   51 1
    50   27   28 ar
    51   27   30 1
    52   28   29 ar
    53   28   52 1
    54   29   53 1
    55   30   31 2
    56   30   32 1
@<TRIPOS>MOLECULE
ZINC08893627
   67    71     0     0     0
SMALL
USER_CHARGES

@<TRIPOS>ATOM
      1 C1          0.2631    1.5204    0.2739 C.3       1 <0>        -0.1069
      2 C2          0.2178    0.0151    0.2204 C.ar      1 <0>        -0.0883
      3 C3          0.0974   -0.6397   -0.9971 C.ar      1 <0>        -0.1063
      4 C4          0.0538   -2.0070   -1.0737 C.ar      1 <0>        -0.0728
      5 C5          0.1303   -2.7991    0.0956 C.ar      1 <0>         0.1159
      6 C6          0.2523   -2.0981    1.3173 C.ar      1 <0>        -0.1732
      7 C7          0.3014   -0.7279    1.3835 C.ar      1 <0>        -0.0560
      8 S1          0.3166   -3.4174    2.5055 S.3       1 <0>         0.0413
      9 C8          0.1820   -4.7707    1.3458 C.2       1 <0>         0.4151
     10 N1          0.1020   -4.1454    0.1940 N.2       1 <0>        -0.5461
     11 N2          0.1669   -6.1311    1.5976 N.am      1 <0>        -0.5047
     12 C9          0.0591   -7.1945    0.5918 C.3       1 <0>         0.2671
     13 H1          0.9020   -7.1452   -0.0976 H         1 <0>         0.0855
     14 C10         0.0867   -8.4989    1.3538 C.2       1 <0>        -0.4811
     15 C11         0.0069   -9.8470    0.7831 C.2       1 <0>         0.5104
     16 C12         1.0957  -10.3498   -0.0774 C.ar      1 <0>        -0.1706
     17 C13         2.2597   -9.5939   -0.2491 C.ar      1 <0>        -0.0292
     18 C14         3.2726  -10.0664   -1.0523 C.ar      1 <0>        -0.2200
     19 C15         3.1395  -11.2935   -1.6932 C.ar      1 <0>         0.1402
     20 C16         1.9838  -12.0479   -1.5257 C.ar      1 <0>        -0.1345
     21 C17         0.9686  -11.5856   -0.7186 C.ar      1 <0>        -0.0341
     22 C18         1.8448  -13.3766   -2.2230 C.3       1 <0>        -0.1001
     23 O1          4.1402  -11.7555   -2.4847 O.3       1 <0>        -0.3148
     24 C19         5.2994  -10.9297   -2.6133 C.3       1 <0>         0.0265
     25 O2         -0.9571  -10.5515    1.0188 O.2       1 <0>        -0.4679
     26 C20         0.1999   -8.1825    2.6653 C.2       1 <0>         0.2680
     27 O3          0.2587   -9.0713    3.6839 O.3       1 <0>        -0.6365
     28 C21         0.2543   -6.7134    2.8073 C.2       1 <0>         0.5122
     29 O4          0.3603   -6.1183    3.8614 O.2       1 <0>        -0.4861
     30 C22        -1.2380   -7.0632   -0.1641 C.ar      1 <0>        -0.0693
     31 C23        -2.4149   -6.8213    0.5195 C.ar      1 <0>        -0.0873
     32 C24        -3.6047   -6.7009   -0.1739 C.ar      1 <0>        -0.1148
     33 C25        -3.6175   -6.8220   -1.5509 C.ar      1 <0>        -0.0758
     34 C26        -2.4404   -7.0630   -2.2345 C.ar      1 <0>        -0.1217
     35 C27        -1.2500   -7.1791   -1.5415 C.ar      1 <0>        -0.0966
     36 C28        -4.9147   -6.6917   -2.3067 C.3       1 <0>        -0.0269
     37 C29        -5.5169   -5.3085   -2.0516 C.3       1 <0>        -0.1362
     38 C30        -4.6523   -6.8655   -3.8040 C.3       1 <0>        -0.1413
     39 C31        -5.8920   -7.7689   -1.8319 C.3       1 <0>        -0.1379
     40 H2          1.2973    1.8558    0.1956 H         1 <0>         0.0702
     41 H3         -0.3156    1.9310   -0.5535 H         1 <0>         0.0674
     42 H4         -0.1595    1.8633    1.2183 H         1 <0>         0.0661
     43 H5          0.0363   -0.0581   -1.9051 H         1 <0>         0.1278
     44 H6         -0.0404   -2.4852   -2.0375 H         1 <0>         0.1291
     45 H7          0.4002   -0.2332    2.3385 H         1 <0>         0.1278
     46 H8          2.3636   -8.6406    0.2477 H         1 <0>         0.1342
     47 H9          4.1718   -9.4833   -1.1854 H         1 <0>         0.1285
     48 H10         0.0733  -12.1747   -0.5848 H         1 <0>         0.1367
     49 H11         2.2352  -14.1663   -1.5812 H         1 <0>         0.0651
     50 H12         0.7928  -13.5674   -2.4350 H         1 <0>         0.0642
     51 H13         2.4060  -13.3570   -3.1573 H         1 <0>         0.0665
     52 H14         5.0139   -9.9659   -3.0348 H         1 <0>         0.0554
     53 H15         5.7484  -10.7784   -1.6317 H         1 <0>         0.0559
     54 H16         6.0200  -11.4150   -3.2716 H         1 <0>         0.0969
     55 H17        -2.4049   -6.7268    1.5953 H         1 <0>         0.1096
     56 H18        -4.5243   -6.5127    0.3602 H         1 <0>         0.1140
     57 H19        -2.4505   -7.1579   -3.3103 H         1 <0>         0.1210
     58 H20        -0.3298   -7.3637   -2.0760 H         1 <0>         0.1173
     59 H21        -4.8207   -4.5411   -2.3899 H         1 <0>         0.0549
     60 H22        -6.4552   -5.2143   -2.5983 H         1 <0>         0.0539
     61 H23        -5.7039   -5.1848   -0.9850 H         1 <0>         0.0554
     62 H24        -4.2233   -7.8509   -3.9857 H         1 <0>         0.0585
     63 H25        -5.5906   -6.7713   -4.3507 H         1 <0>         0.0536
     64 H26        -3.9560   -6.0981   -4.1423 H         1 <0>         0.0574
     65 H27        -6.0790   -7.6451   -0.7652 H         1 <0>         0.0566
     66 H28        -6.8303   -7.6747   -2.3786 H         1 <0>         0.0538
     67 H29        -5.4630   -8.7543   -2.0136 H         1 <0>         0.0572
@<TRIPOS>BOND
     1    1    2 1
     2    1   40 1
     3    1   41 1
     4    1   42 1
     5    2    7 ar
     6    2    3 ar
     7    3    4 ar
     8    3   43 1
     9    4    5 ar
    10    4   44 1
    11    5   10 1
    12    5    6 ar
    13    6    7 ar
    14    6    8 1
    15    7   45 1
    16    8    9 1
    17    9   10 2
    18    9   11 1
    19   11   28 am
    20   11   12 1
    21   12   14 1
    22   12   30 1
    23   12   13 1
    24   14   26 2
    25   14   15 1
    26   15   25 2
    27   15   16 1
    28   16   21 ar
    29   16   17 ar
    30   17   18 ar
    31   17   46 1
    32   18   19 ar
    33   18   47 1
    34   19   20 ar
    35   19   23 1
    36   20   21 ar
    37   20   22 1
    38   21   48 1
    39   22   49 1
    40   22   50 1
    41   22   51 1
    42   23   24 1
    43   24   52 1
    44   24   53 1
    45   24   54 1
    46   26   28 1
    47   26   27 1
    48   28   29 2
    49   30   35 ar
    50   30   31 ar
    51   31   32 ar
    52   31   55 1
    53   32   33 ar
    54   32   56 1
    55   33   34 ar
    56   33   36 1
    57   34   35 ar
    58   34   57 1
    59   35   58 1
    60   36   37 1
    61   36   38 1
    62   36   39 1
    63   37   59 1
    64   37   60 1
    65   37   61 1
    66   38   62 1
    67   38   63 1
    68   38   64 1
    69   39   65 1
    70   39   66 1
    71   39   67 1
@<TRIPOS>MOLECULE
ZINC40401164
   64    66     0     0     0
SMALL
USER_CHARGES

@<TRIPOS>ATOM
      1 C1          4.2237   -1.9848   -1.2296 C.3       1 <0>        -0.1627
      2 C2          3.8134   -0.6007   -1.7363 C.3       1 <0>         0.1345
      3 N1          2.3689   -0.5780   -1.9794 N.pl3     1 <0>        -0.6382
      4 C3          1.4591   -0.0866   -0.9417 C.3       1 <0>         0.1073
      5 C4          1.8635   -1.0211   -3.1900 C.2       1 <0>         0.5039
      6 O1          2.6898   -1.5884   -4.1024 O.3       1 <0>        -0.6989
      7 C5          0.5509   -0.8883   -3.4609 C.2       1 <0>        -0.4648
      8 C6          0.0341   -1.2505   -4.7885 C.2       1 <0>         0.2326
      9 C7          0.8247   -1.8460   -5.7084 C.2       1 <0>        -0.3026
     10 S1         -0.2931   -2.0456   -7.0815 S.3       1 <0>         0.1516
     11 C8         -1.6663   -1.3665   -6.3959 C.2       1 <0>         0.3198
     12 N2         -2.8816   -1.1876   -6.8714 N.2       1 <0>        -0.5784
     13 C9         -3.8785   -0.6292   -6.2045 C.2       1 <0>         0.1666
     14 C10        -3.6915   -0.1814   -4.9108 C.2       1 <0>        -0.3019
     15 C11        -2.3202   -0.3530   -4.2965 C.3       1 <0>         0.2694
     16 H1         -2.4308   -0.9475   -3.3896 H         1 <0>         0.0806
     17 N3         -1.2779   -0.9995   -5.1378 N.pl3     1 <0>        -0.5140
     18 C12        -1.8181    1.0098   -3.8944 C.ar      1 <0>        -0.0807
     19 C13        -1.3664    1.8920   -4.8580 C.ar      1 <0>        -0.0758
     20 C14        -0.9058    3.1421   -4.4891 C.ar      1 <0>        -0.1132
     21 C15        -0.8974    3.5101   -3.1567 C.ar      1 <0>        -0.0727
     22 C16        -1.3500    2.6282   -2.1932 C.ar      1 <0>        -0.1104
     23 C17        -1.8145    1.3797   -2.5625 C.ar      1 <0>        -0.0933
     24 C18        -0.3944    4.8726   -2.7544 C.3       1 <0>        -0.0544
     25 C19        -1.5127    5.6406   -2.0470 C.3       1 <0>        -0.1416
     26 C20         0.7964    4.7172   -1.8065 C.3       1 <0>        -0.1417
     27 C21        -4.7367    0.4120   -4.1926 C.2       1 <0>         0.5528
     28 O2         -4.8333    1.6261   -4.1484 O.2       1 <0>        -0.4927
     29 O3         -5.6383   -0.3616   -3.5484 O.3       1 <0>        -0.3467
     30 C22        -6.6782    0.3110   -2.8354 C.3       1 <0>         0.0778
     31 C23        -7.9344   -0.5624   -2.8216 C.3       1 <0>        -0.1479
     32 C24        -6.2238    0.5736   -1.3982 C.3       1 <0>        -0.1696
     33 C25        -5.2270   -0.4801   -6.8605 C.3       1 <0>         0.5216
     34 F1         -6.0708    0.2632   -6.0283 F         1 <0>        -0.1666
     35 F2         -5.0795    0.1805   -8.0849 F         1 <0>        -0.1648
     36 F3         -5.7826   -1.7456   -7.0774 F         1 <0>        -0.1654
     37 H2          3.7646   -2.1668   -0.2579 H         1 <0>         0.0412
     38 H3          3.8903   -2.7442   -1.9369 H         1 <0>         0.0643
     39 H4          5.3085   -2.0295   -1.1331 H         1 <0>         0.0489
     40 H5          4.0678    0.1502   -0.9883 H         1 <0>         0.0513
     41 H6          4.3415   -0.3823   -2.6645 H         1 <0>         0.0695
     42 H7          1.3125    0.9864   -1.0654 H         1 <0>         0.0350
     43 H8          0.4997   -0.5968   -1.0282 H         1 <0>         0.0612
     44 H9          1.8881   -0.2838    0.0408 H         1 <0>         0.0462
     45 H10        -0.1220   -0.5158   -2.7027 H         1 <0>         0.0931
     46 H11         1.8644   -2.1279   -5.6314 H         1 <0>         0.2388
     47 H12        -1.3729    1.6045   -5.8990 H         1 <0>         0.1049
     48 H13        -0.5522    3.8311   -5.2419 H         1 <0>         0.1152
     49 H14        -1.3431    2.9156   -1.1521 H         1 <0>         0.1160
     50 H15        -2.1716    0.6921   -1.8101 H         1 <0>         0.1124
     51 H16        -0.0823    5.4215   -3.6429 H         1 <0>         0.0734
     52 H17        -1.1489    6.6261   -1.7560 H         1 <0>         0.0536
     53 H18        -2.3610    5.7513   -2.7223 H         1 <0>         0.0553
     54 H19        -1.8248    5.0917   -1.1585 H         1 <0>         0.0554
     55 H20         1.5930    4.1700   -2.3105 H         1 <0>         0.0571
     56 H21         1.1602    5.7026   -1.5155 H         1 <0>         0.0532
     57 H22         0.4843    4.1682   -0.9180 H         1 <0>         0.0556
     58 H23        -6.9003    1.2590   -3.3253 H         1 <0>         0.0814
     59 H24        -7.7124   -1.5105   -2.3317 H         1 <0>         0.0656
     60 H25        -8.7276   -0.0494   -2.2777 H         1 <0>         0.0736
     61 H26        -8.2581   -0.7495   -3.8454 H         1 <0>         0.0634
     62 H27        -6.0018   -0.3745   -0.9084 H         1 <0>         0.0638
     63 H28        -5.3289    1.1958   -1.4081 H         1 <0>         0.0615
     64 H29        -7.0170    1.0866   -0.8544 H         1 <0>         0.0698
@<TRIPOS>BOND
     1    1    2 1
     2    1   37 1
     3    1   38 1
     4    1   39 1
     5    2    3 1
     6    2   40 1
     7    2   41 1
     8    3    4 1
     9    3    5 1
    10    4   42 1
    11    4   43 1
    12    4   44 1
    13    5    6 1
    14    5    7 2
    15    7    8 1
    16    7   45 1
    17    8   17 1
    18    8    9 2
    19    9   10 1
    20    9   46 1
    21   10   11 1
    22   11   17 1
    23   11   12 2
    24   12   13 1
    25   13   14 2
    26   13   33 1
    27   14   15 1
    28   14   27 1
    29   15   16 1
    30   15   17 1
    31   15   18 1
    32   18   23 ar
    33   18   19 ar
    34   19   20 ar
    35   19   47 1
    36   20   21 ar
    37   20   48 1
    38   21   22 ar
    39   21   24 1
    40   22   23 ar
    41   22   49 1
    42   23   50 1
    43   24   25 1
    44   24   26 1
    45   24   51 1
    46   25   52 1
    47   25   53 1
    48   25   54 1
    49   26   55 1
    50   26   56 1
    51   26   57 1
    52   27   28 2
    53   27   29 1
    54   29   30 1
    55   30   31 1
    56   30   32 1
    57   30   58 1
    58   31   59 1
    59   31   60 1
    60   31   61 1
    61   32   62 1
    62   32   63 1
    63   32   64 1
    64   33   34 1
    65   33   35 1
    66   33   36 1
@<TRIPOS>MOLECULE
ZINC59221222
   63    67     0     0     0
SMALL
USER_CHARGES

@<TRIPOS>ATOM
      1 C1         -2.4199    0.6433   -0.1714 C.3       1 <0>        -0.1142
      2 C2         -1.3643   -0.4267   -0.0638 C.ar      1 <0>        -0.0731
      3 C3         -0.5560   -0.7110   -1.1507 C.ar      1 <0>        -0.1216
      4 C4          0.4160   -1.6914   -1.0608 C.ar      1 <0>        -0.1043
      5 C5          0.5857   -2.3933    0.1145 C.ar      1 <0>        -0.0736
      6 C6         -0.2263   -2.1119    1.2155 C.ar      1 <0>         0.1043
      7 C7         -1.2021   -1.1165    1.1193 C.ar      1 <0>        -0.1389
      8 N1         -0.0640   -2.8044    2.3842 N.2       1 <0>        -0.4548
      9 C8          0.0425   -2.1564    3.5226 C.2       1 <0>         0.4146
     10 N2          0.0984   -2.6715    4.8014 N.am      1 <0>        -0.4987
     11 C9          0.2075   -1.8679    5.8458 C.2       1 <0>         0.5394
     12 O1          0.2586   -2.3046    6.9813 O.2       1 <0>        -0.4307
     13 C10         0.2650   -0.4214    5.5752 C.2       1 <0>        -0.2326
     14 C11         0.3761    0.6187    6.4506 C.2       1 <0>         0.1010
     15 C12         0.6183    0.3671    7.8194 C.2       1 <0>        -0.0626
     16 C13         0.8047    1.3259    8.7995 C.2       1 <0>        -0.1228
     17 C14         1.0117    0.6421    9.9998 C.2       1 <0>        -0.2284
     18 C15         0.9450   -0.7033    9.7129 C.2       1 <0>         0.1045
     19 O2          0.7017   -0.8488    8.3967 O.3       1 <0>        -0.1037
     20 C16         1.1071   -1.7993   10.6842 C.ar      1 <0>        -0.0638
     21 C17         1.3466   -1.5096   12.0325 C.ar      1 <0>        -0.0987
     22 C18         1.4969   -2.5249   12.9325 C.ar      1 <0>        -0.0926
     23 C19         1.4108   -3.8558   12.5071 C.ar      1 <0>        -0.1067
     24 C20         1.1708   -4.1453   11.1587 C.ar      1 <0>        -0.0919
     25 C21         1.0157   -3.1298   10.2597 C.ar      1 <0>        -0.0956
     26 C22         1.5733   -4.9512   13.4778 C.2       1 <0>         0.5167
     27 O3          1.7835   -4.6981   14.6562 O.co2     1 <0>        -0.6836
     28 O4          1.4981   -6.1143   13.1059 O.co2     1 <0>        -0.6824
     29 S1          0.1580   -0.3952    3.7916 S.3       1 <0>        -0.0378
     30 C23         0.0386   -4.0576    4.9950 C.ar      1 <0>         0.1230
     31 C24         1.2070   -4.8078    5.0194 C.ar      1 <0>        -0.0887
     32 C25         1.1448   -6.1740    5.2109 C.ar      1 <0>        -0.0805
     33 C26        -0.0795   -6.7952    5.3783 C.ar      1 <0>        -0.0992
     34 C27        -1.2446   -6.0511    5.3541 C.ar      1 <0>        -0.1082
     35 C28        -1.1885   -4.6834    5.1686 C.ar      1 <0>        -0.0641
     36 C29        -2.4584   -3.8721    5.1491 C.3       1 <0>        -0.1122
     37 C30         2.4121   -6.9889    5.2370 C.3       1 <0>        -0.1142
     38 C31         1.6444   -3.4616    0.2102 C.3       1 <0>        -0.1111
     39 H1         -1.9945    1.6039    0.1191 H         1 <0>         0.0725
     40 H2         -2.7763    0.7000   -1.1999 H         1 <0>         0.0671
     41 H3         -3.2524    0.4001    0.4888 H         1 <0>         0.0661
     42 H4         -0.6849   -0.1650   -2.0736 H         1 <0>         0.1239
     43 H5          1.0432   -1.9080   -1.9130 H         1 <0>         0.1275
     44 H6         -1.8307   -0.8909    1.9680 H         1 <0>         0.1258
     45 H7          0.2789    1.6347    6.0973 H         1 <0>         0.1733
     46 H8          0.7928    2.3971    8.6626 H         1 <0>         0.1579
     47 H9          1.1906    1.0845   10.9687 H         1 <0>         0.1563
     48 H10         1.4130   -0.4829   12.3607 H         1 <0>         0.1217
     49 H11         1.6824   -2.3015   13.9727 H         1 <0>         0.1344
     50 H12         1.1047   -5.1721   10.8303 H         1 <0>         0.1311
     51 H13         0.8264   -3.3531    9.2201 H         1 <0>         0.1285
     52 H14         2.1633   -4.3233    4.8883 H         1 <0>         0.1219
     53 H15        -0.1256   -7.8638    5.5279 H         1 <0>         0.1288
     54 H16        -2.1992   -6.5391    5.4848 H         1 <0>         0.1299
     55 H17        -2.8376   -3.8152    4.1288 H         1 <0>         0.0716
     56 H18        -3.2031   -4.3476    5.7875 H         1 <0>         0.0737
     57 H19        -2.2531   -2.8669    5.5170 H         1 <0>         0.0570
     58 H20         2.7863   -7.0461    6.2591 H         1 <0>         0.0761
     59 H21         2.2055   -7.9939    4.8689 H         1 <0>         0.0689
     60 H22         3.1612   -6.5162    4.6017 H         1 <0>         0.0652
     61 H23         2.5785   -3.0176    0.5542 H         1 <0>         0.0668
     62 H24         1.3245   -4.2279    0.9164 H         1 <0>         0.0761
     63 H25         1.7958   -3.9120   -0.7708 H         1 <0>         0.0655
@<TRIPOS>BOND
     1    1    2 1
     2    1   39 1
     3    1   40 1
     4    1   41 1
     5    2    7 ar
     6    2    3 ar
     7    3    4 ar
     8    3   42 1
     9    4    5 ar
    10    4   43 1
    11    5    6 ar
    12    5   38 1
    13    6    7 ar
    14    6    8 1
    15    7   44 1
    16    8    9 2
    17    9   29 1
    18    9   10 1
    19   10   11 am
    20   10   30 1
    21   11   12 2
    22   11   13 1
    23   13   14 2
    24   13   29 1
    25   14   15 1
    26   14   45 1
    27   15   19 1
    28   15   16 2
    29   16   17 1
    30   16   46 1
    31   17   18 2
    32   17   47 1
    33   18   19 1
    34   18   20 1
    35   20   25 ar
    36   20   21 ar
    37   21   22 ar
    38   21   48 1
    39   22   23 ar
    40   22   49 1
    41   23   24 ar
    42   23   26 1
    43   24   25 ar
    44   24   50 1
    45   25   51 1
    46   26   27 2
    47   26   28 1
    48   30   35 ar
    49   30   31 ar
    50   31   32 ar
    51   31   52 1
    52   32   33 ar
    53   32   37 1
    54   33   34 ar
    55   33   53 1
    56   34   35 ar
    57   34   54 1
    58   35   36 1
    59   36   55 1
    60   36   56 1
    61   36   57 1
    62   37   58 1
    63   37   59 1
    64   37   60 1
    65   38   61 1
    66   38   62 1
    67   38   63 1
@<TRIPOS>MOLECULE
ZINC01789051
   60    61     0     0     0
SMALL
USER_CHARGES
N-(2-furylmethyl)-N-[3-(4-isopropoxyphenyl)-4-methyl-pentyl]-propanamide
@<TRIPOS>ATOM
      1 C1          1.2175    4.4683    5.3609 C.3       1 <0>        -0.1384
      2 C2          0.9664    3.1487    4.6285 C.3       1 <0>        -0.1434
      3 C3          0.1656    2.2278    5.5128 C.2       1 <0>         0.5154
      4 O1         -0.1711    2.5913    6.6198 O.2       1 <0>        -0.5323
      5 N1         -0.1763    1.0004    5.0735 N.am      1 <0>        -0.6099
      6 C4          0.2304    0.5614    3.7363 C.3       1 <0>         0.1070
      7 C5         -0.8499    0.9451    2.7230 C.3       1 <0>        -0.1323
      8 C6         -0.4558    0.4293    1.3375 C.3       1 <0>        -0.0359
      9 H1          0.5243    0.8232    1.0685 H         1 <0>         0.0807
     10 C7         -0.4036   -1.0766    1.3582 C.ar      1 <0>        -0.1106
     11 C8         -1.5356   -1.8020    1.6810 C.ar      1 <0>        -0.0731
     12 C9         -1.4918   -3.1827    1.6952 C.ar      1 <0>        -0.2068
     13 C10        -0.3077   -3.8411    1.3967 C.ar      1 <0>         0.1310
     14 C11         0.8281   -3.1108    1.0786 C.ar      1 <0>        -0.1504
     15 C12         0.7776   -1.7304    1.0598 C.ar      1 <0>        -0.0767
     16 O2         -0.2605   -5.1991    1.4162 O.3       1 <0>        -0.3115
     17 C13        -1.4604   -5.8849    1.7795 C.3       1 <0>         0.0771
     18 C14        -2.3512   -6.0426    0.5457 C.3       1 <0>        -0.1804
     19 C15        -1.1098   -7.2666    2.3354 C.3       1 <0>        -0.1499
     20 C16        -1.4904    0.8897    0.3086 C.3       1 <0>        -0.0854
     21 C17        -1.1631    0.2753   -1.0538 C.3       1 <0>        -0.1473
     22 C18        -1.4584    2.4156    0.2009 C.3       1 <0>        -0.1506
     23 C19        -0.9548    0.1053    5.9331 C.3       1 <0>         0.1984
     24 C20        -0.0182   -0.7301    6.7674 C.2       1 <0>        -0.0413
     25 C21         0.4556   -0.4036    7.9833 C.2       1 <0>        -0.1822
     26 C22         1.2930   -1.4657    8.3952 C.2       1 <0>        -0.2172
     27 C23         1.2808   -2.3776    7.4065 C.2       1 <0>        -0.0365
     28 O3          0.4803   -1.9294    6.4256 O.3       1 <0>        -0.1739
     29 H2          0.2635    4.9364    5.6036 H         1 <0>         0.0620
     30 H3          1.7712    4.2744    6.2796 H         1 <0>         0.0613
     31 H4          1.7966    5.1343    4.7213 H         1 <0>         0.0621
     32 H5          1.9204    2.6806    4.3858 H         1 <0>         0.0924
     33 H6          0.4127    3.3426    3.7099 H         1 <0>         0.0943
     34 H7          0.3631   -0.5205    3.7338 H         1 <0>         0.0850
     35 H8          1.1699    1.0434    3.4658 H         1 <0>         0.0809
     36 H9         -0.9500    2.0300    2.6919 H         1 <0>         0.0735
     37 H10        -1.8001    0.5009    3.0193 H         1 <0>         0.0699
     38 H11        -2.4558   -1.2889    1.9184 H         1 <0>         0.1209
     39 H12        -2.3773   -3.7490    1.9435 H         1 <0>         0.1271
     40 H13         1.7510   -3.6211    0.8455 H         1 <0>         0.1280
     41 H14         1.6616   -1.1615    0.8123 H         1 <0>         0.1264
     42 H15        -1.9907   -5.3113    2.5397 H         1 <0>         0.0734
     43 H16        -1.8209   -6.6162   -0.2145 H         1 <0>         0.0677
     44 H17        -3.2665   -6.5657    0.8228 H         1 <0>         0.0723
     45 H18        -2.6010   -5.0583    0.1496 H         1 <0>         0.0621
     46 H19        -0.4752   -7.1542    3.2144 H         1 <0>         0.0650
     47 H20        -2.0251   -7.7896    2.6125 H         1 <0>         0.0774
     48 H21        -0.5795   -7.8402    1.5753 H         1 <0>         0.0675
     49 H22        -2.4833    0.5684    0.6231 H         1 <0>         0.0701
     50 H23        -1.1859   -0.8118   -0.9770 H         1 <0>         0.0575
     51 H24        -0.1701    0.5966   -1.3682 H         1 <0>         0.0539
     52 H25        -1.9002    0.6032   -1.7868 H         1 <0>         0.0525
     53 H26        -2.1124    2.7363   -0.6100 H         1 <0>         0.0557
     54 H27        -1.8009    2.8533    1.1386 H         1 <0>         0.0558
     55 H28        -0.4393    2.7442   -0.0027 H         1 <0>         0.0559
     56 H29        -1.5954    0.6963    6.5877 H         1 <0>         0.1141
     57 H30        -1.5708   -0.5475    5.3147 H         1 <0>         0.0927
     58 H31         0.2385    0.4972    8.5381 H         1 <0>         0.1495
     59 H32         1.8381   -1.5319    9.3252 H         1 <0>         0.1479
     60 H33         1.8192   -3.3139    7.4041 H         1 <0>         0.2018
@<TRIPOS>BOND
     1    1    2 1
     2    1   29 1
     3    1   30 1
     4    1   31 1
     5    2    3 1
     6    2   32 1
     7    2   33 1
     8    3    4 2
     9    3    5 am
    10    5    6 1
    11    5   23 1
    12    6    7 1
    13    6   34 1
    14    6   35 1
    15    7    8 1
    16    7   36 1
    17    7   37 1
    18    8    9 1
    19    8   10 1
    20    8   20 1
    21   10   15 ar
    22   10   11 ar
    23   11   12 ar
    24   11   38 1
    25   12   13 ar
    26   12   39 1
    27   13   14 ar
    28   13   16 1
    29   14   15 ar
    30   14   40 1
    31   15   41 1
    32   16   17 1
    33   17   18 1
    34   17   19 1
    35   17   42 1
    36   18   43 1
    37   18   44 1
    38   18   45 1
    39   19   46 1
    40   19   47 1
    41   19   48 1
    42   20   21 1
    43   20   22 1
    44   20   49 1
    45   21   50 1
    46   21   51 1
    47   21   52 1
    48   22   53 1
    49   22   54 1
    50   22   55 1
    51   23   24 1
    52   23   56 1
    53   23   57 1
    54   24   28 1
    55   24   25 2
    56   25   26 1
    57   25   58 1
    58   26   27 2
    59   26   59 1
    60   27   28 1
    61   27   60 1
@<TRIPOS>MOLECULE
ZINC05243643
   62    63     0     0     0
SMALL
USER_CHARGES
2-(1-ethoxyiminobutyl)-5-(2-ethylsulfanylpropyl)-3-pyrrolidin-1-yl-cyclohex-2-en-1-one
@<TRIPOS>ATOM
      1 C1         -1.8629    4.8595   -0.3056 C.3       1 <0>        -0.1489
      2 C2         -1.5336    3.8554    0.8008 C.3       1 <0>        -0.1096
      3 C3         -1.1477    2.5141    0.1740 C.3       1 <0>        -0.1008
      4 C4         -0.7055    1.5627    1.2558 C.2       1 <0>         0.2152
      5 N1          0.5244    1.5705    1.6622 N.2       1 <0>        -0.3341
      6 O1          1.4535    2.4730    1.0900 O.3       1 <0>        -0.2417
      7 C5          2.7716    2.3721    1.6326 C.3       1 <0>         0.0723
      8 C6          3.6856    3.3879    0.9443 C.3       1 <0>        -0.1492
      9 C7         -1.6717    0.6241    1.8509 C.2       1 <0>        -0.2291
     10 C8         -1.9146   -0.5816    1.2298 C.2       1 <0>         0.2995
     11 C9         -2.8985   -1.5634    1.8091 C.3       1 <0>        -0.1055
     12 C10        -2.9369   -1.4093    3.3317 C.3       1 <0>        -0.0836
     13 H1         -1.9540   -1.6339    3.7459 H         1 <0>         0.0955
     14 C11        -3.3240    0.0312    3.6783 C.3       1 <0>        -0.1507
     15 C12        -2.3289    0.9732    3.0514 C.2       1 <0>         0.4072
     16 O2         -2.0939    2.0414    3.5792 O.2       1 <0>        -0.4630
     17 C13        -3.9715   -2.3724    3.9176 C.3       1 <0>        -0.0930
     18 C14        -3.9211   -2.3072    5.4454 C.3       1 <0>        -0.0601
     19 H2         -4.0552   -1.2753    5.7697 H         1 <0>         0.0898
     20 C15        -5.0376   -3.1748    6.0299 C.3       1 <0>        -0.1489
     21 S1         -2.3143   -2.9189    6.0240 S.3       1 <0>        -0.2593
     22 C16        -2.3565   -2.6365    7.8154 C.3       1 <0>        -0.0894
     23 C17        -1.0431   -3.1143    8.4380 C.3       1 <0>        -0.1377
     24 N2         -1.2614   -0.8871    0.0868 N.pl3     1 <0>        -0.6621
     25 C18        -1.8846   -1.0816   -1.2305 C.3       1 <0>         0.1230
     26 C19        -0.7574   -1.4365   -2.2228 C.3       1 <0>        -0.1316
     27 C20         0.3592   -1.9849   -1.2955 C.3       1 <0>        -0.1326
     28 C21         0.1934   -1.0867   -0.0443 C.3       1 <0>         0.1232
     29 H3         -2.7497    4.5274   -0.8455 H         1 <0>         0.0531
     30 H4         -2.0517    5.8379    0.1361 H         1 <0>         0.0560
     31 H5         -1.0220    4.9285   -0.9957 H         1 <0>         0.0535
     32 H6         -2.4060    3.7200    1.4401 H         1 <0>         0.0653
     33 H7         -0.7015    4.2309    1.3964 H         1 <0>         0.0630
     34 H8         -2.0083    2.0960   -0.3481 H         1 <0>         0.0729
     35 H9         -0.3319    2.6648   -0.5330 H         1 <0>         0.0781
     36 H10         2.7407    2.5777    2.7026 H         1 <0>         0.0535
     37 H11         3.1567    1.3660    1.4669 H         1 <0>         0.0520
     38 H12         3.7164    3.1823   -0.1257 H         1 <0>         0.0620
     39 H13         3.3004    4.3940    1.1100 H         1 <0>         0.0630
     40 H14         4.6910    3.3109    1.3582 H         1 <0>         0.0768
     41 H15        -3.8896   -1.3693    1.3991 H         1 <0>         0.0951
     42 H16        -2.5922   -2.5780    1.5542 H         1 <0>         0.0941
     43 H17        -4.2403    0.2238    3.3271 H         1 <0>         0.0920
     44 H18        -3.3130    0.1609    4.7605 H         1 <0>         0.0953
     45 H19        -4.9666   -2.0893    3.5745 H         1 <0>         0.0831
     46 H20        -3.7492   -3.3878    3.5897 H         1 <0>         0.0798
     47 H21        -4.9034   -4.2067    5.7056 H         1 <0>         0.0690
     48 H22        -5.0017   -3.1284    7.1183 H         1 <0>         0.0562
     49 H23        -6.0031   -2.8073    5.6822 H         1 <0>         0.0658
     50 H24        -2.4860   -1.5723    8.0125 H         1 <0>         0.0794
     51 H25        -3.1879   -3.1905    8.2511 H         1 <0>         0.0800
     52 H26        -1.0685   -2.9446    9.5145 H         1 <0>         0.0711
     53 H27        -0.9136   -4.1785    8.2409 H         1 <0>         0.0645
     54 H28        -0.2117   -2.5602    8.0023 H         1 <0>         0.0648
     55 H29        -2.6080   -1.8955   -1.1818 H         1 <0>         0.0612
     56 H30        -2.3782   -0.1625   -1.5464 H         1 <0>         0.0608
     57 H31        -0.4148   -0.5497   -2.7562 H         1 <0>         0.0755
     58 H32        -1.0875   -2.2030   -2.9240 H         1 <0>         0.0825
     59 H33         1.3425   -1.8498   -1.7459 H         1 <0>         0.0822
     60 H34         0.1847   -3.0325   -1.0503 H         1 <0>         0.0765
     61 H35         0.6955   -0.1310   -0.1942 H         1 <0>         0.0587
     62 H36         0.5884   -1.5894    0.8385 H         1 <0>         0.0686
@<TRIPOS>BOND
     1    1    2 1
     2    1   29 1
     3    1   30 1
     4    1   31 1
     5    2    3 1
     6    2   32 1
     7    2   33 1
     8    3    4 1
     9    3   34 1
    10    3   35 1
    11    4    5 2
    12    4    9 1
    13    5    6 1
    14    6    7 1
    15    7    8 1
    16    7   36 1
    17    7   37 1
    18    8   38 1
    19    8   39 1
    20    8   40 1
    21    9   15 1
    22    9   10 2
    23   10   11 1
    24   10   24 1
    25   11   12 1
    26   11   41 1
    27   11   42 1
    28   12   13 1
    29   12   14 1
    30   12   17 1
    31   14   15 1
    32   14   43 1
    33   14   44 1
    34   15   16 2
    35   17   18 1
    36   17   45 1
    37   17   46 1
    38   18   19 1
    39   18   20 1
    40   18   21 1
    41   20   47 1
    42   20   48 1
    43   20   49 1
    44   21   22 1
    45   22   23 1
    46   22   50 1
    47   22   51 1
    48   23   52 1
    49   23   53 1
    50   23   54 1
    51   24   28 1
    52   24   25 1
    53   25   26 1
    54   25   55 1
    55   25   56 1
    56   26   27 1
    57   26   57 1
    58   26   58 1
    59   27   28 1
    60   27   59 1
    61   27   60 1
    62   28   61 1
    63   28   62 1
@<TRIPOS>MOLECULE
ZINC05858582
   50    49     0     0     0
SMALL
USER_CHARGES
(3S)-1,1-diethoxy-7-methoxy-3,7-dimethyl-octane
@<TRIPOS>ATOM
      1 C1          1.7734   -2.5966    4.9482 C.3       1 <0>        -0.1535
      2 C2          1.1454   -2.2163    3.6058 C.3       1 <0>         0.0375
      3 O1          0.6263   -0.8871    3.6823 O.3       1 <0>        -0.3967
      4 C3         -0.0955   -0.4772    2.5191 C.3       1 <0>         0.2477
      5 C4         -0.0259    1.0454    2.3859 C.3       1 <0>        -0.0961
      6 C5         -0.7399    1.4784    1.1039 C.3       1 <0>        -0.0872
      7 H1         -1.7629    1.0741    1.0996 H         1 <0>         0.0816
      8 C6         -0.7951    3.0061    1.0419 C.3       1 <0>        -0.1497
      9 C7          0.0242    0.9460   -0.1101 C.3       1 <0>        -0.1186
     10 C8         -0.7550    1.2715   -1.3860 C.3       1 <0>        -0.1203
     11 C9          0.0091    0.7391   -2.6000 C.3       1 <0>        -0.1050
     12 C10        -0.7701    1.0646   -3.8758 C.3       1 <0>         0.1105
     13 C11        -0.0711    0.4253   -5.0774 C.3       1 <0>        -0.1817
     14 C12        -2.1922    0.5123   -3.7598 C.3       1 <0>        -0.1834
     15 O2         -0.8224    2.4815   -4.0537 O.3       1 <0>        -0.3767
     16 C13        -1.5319    2.8948   -5.2232 C.3       1 <0>         0.0213
     17 O3         -1.4605   -0.8831    2.6379 O.3       1 <0>        -0.3894
     18 C14        -1.6452   -2.2998    2.6673 C.3       1 <0>         0.0469
     19 C15        -3.1408   -2.6200    2.6288 C.3       1 <0>        -0.1535
     20 H2          2.1730   -3.6198    4.8893 H         1 <0>         0.0725
     21 H3          1.0092   -2.5463    5.7378 H         1 <0>         0.0641
     22 H4          2.5894   -1.8972    5.1825 H         1 <0>         0.0653
     23 H5          1.9096   -2.2666    2.8162 H         1 <0>         0.0506
     24 H6          0.3294   -2.9157    3.3715 H         1 <0>         0.0586
     25 H7          0.3350   -1.0076    1.6569 H         1 <0>         0.0531
     26 H8         -0.5151    1.5121    3.2536 H         1 <0>         0.0826
     27 H9          1.0267    1.3621    2.3442 H         1 <0>         0.0843
     28 H10        -1.3085    3.3173    0.1202 H         1 <0>         0.0618
     29 H11         0.2279    3.4104    1.0463 H         1 <0>         0.0549
     30 H12        -1.3444    3.3889    1.9147 H         1 <0>         0.0551
     31 H13         1.0162    1.4193   -0.1554 H         1 <0>         0.0631
     32 H14         0.1418   -0.1440   -0.0202 H         1 <0>         0.0563
     33 H15        -1.7469    0.7982   -1.3406 H         1 <0>         0.0640
     34 H16        -0.8726    2.3615   -1.4759 H         1 <0>         0.0748
     35 H17         1.0010    1.2124   -2.6453 H         1 <0>         0.0703
     36 H18         0.1267   -0.3509   -2.5101 H         1 <0>         0.0730
     37 H19        -0.6313    0.6593   -5.9947 H         1 <0>         0.0601
     38 H20        -0.0308   -0.6654   -4.9405 H         1 <0>         0.0667
     39 H21         0.9513    0.8224   -5.1608 H         1 <0>         0.0645
     40 H22        -2.7524    0.7464   -4.6771 H         1 <0>         0.0583
     41 H23        -2.6947    0.9719   -2.8959 H         1 <0>         0.0701
     42 H24        -2.1519   -0.5784   -3.6230 H         1 <0>         0.0661
     43 H25        -1.5262    3.9930   -5.2866 H         1 <0>         0.0852
     44 H26        -2.5703    2.5361   -5.1680 H         1 <0>         0.0439
     45 H27        -1.0454    2.4735   -6.1153 H         1 <0>         0.0434
     46 H28        -1.1508   -2.7522    1.7950 H         1 <0>         0.0455
     47 H29        -1.2065   -2.7077    3.5899 H         1 <0>         0.0580
     48 H30        -3.2830   -3.7105    2.6514 H         1 <0>         0.0713
     49 H31        -3.5795   -2.2121    1.7062 H         1 <0>         0.0635
     50 H32        -3.6352   -2.1676    3.5011 H         1 <0>         0.0653
@<TRIPOS>BOND
     1    1    2 1
     2    1   20 1
     3    1   21 1
     4    1   22 1
     5    2    3 1
     6    2   23 1
     7    2   24 1
     8    3    4 1
     9    4    5 1
    10    4   17 1
    11    4   25 1
    12    5    6 1
    13    5   26 1
    14    5   27 1
    15    6    7 1
    16    6    8 1
    17    6    9 1
    18    8   28 1
    19    8   29 1
    20    8   30 1
    21    9   10 1
    22    9   31 1
    23    9   32 1
    24   10   11 1
    25   10   33 1
    26   10   34 1
    27   11   12 1
    28   11   35 1
    29   11   36 1
    30   12   13 1
    31   12   14 1
    32   12   15 1
    33   13   37 1
    34   13   38 1
    35   13   39 1
    36   14   40 1
    37   14   41 1
    38   14   42 1
    39   15   16 1
    40   16   43 1
    41   16   44 1
    42   16   45 1
    43   17   18 1
    44   18   19 1
    45   18   46 1
    46   18   47 1
    47   19   48 1
    48   19   49 1
    49   19   50 1
@<TRIPOS>MOLECULE
ZINC40890341
   58    59     0     0     0
SMALL
USER_CHARGES

@<TRIPOS>ATOM
      1 C1         -0.0694    1.5176   -0.0017 C.3       1 <0>        -0.1548
      2 C2         -0.0523   -0.0123   -0.0033 C.3       1 <0>        -0.1257
      3 C3          0.7276   -0.5149    1.2132 C.3       1 <0>        -0.1201
      4 C4          0.7448   -2.0448    1.2116 C.3       1 <0>        -0.1172
      5 C5          1.5247   -2.5474    2.4281 C.3       1 <0>        -0.1191
      6 C6          1.5419   -4.0773    2.4265 C.3       1 <0>         0.0554
      7 O1          2.2703   -4.5467    3.5627 O.3       1 <0>        -0.2993
      8 C7          2.3809   -5.8922    3.7114 C.ar      1 <0>         0.1283
      9 C8          1.8034   -6.7418    2.7769 C.ar      1 <0>        -0.1807
     10 C9          1.9125   -8.1071    2.9220 C.ar      1 <0>        -0.0821
     11 C10         2.6070   -8.6412    4.0137 C.ar      1 <0>        -0.0915
     12 C11         3.1887   -7.7839    4.9551 C.ar      1 <0>        -0.1409
     13 C12         3.0789   -6.4164    4.7989 C.ar      1 <0>         0.0951
     14 O2          3.6476   -5.5804    5.7084 O.3       1 <0>        -0.3040
     15 C13         4.3475   -6.1859    6.7973 C.3       1 <0>         0.0234
     16 C14         2.7246  -10.0975    4.1713 C.2       1 <0>         0.0251
     17 C15         2.1620  -10.9230    3.2617 C.2       1 <0>        -0.2162
     18 C16         2.2755  -12.3279    3.4138 C.2       1 <0>         0.5018
     19 O3          2.8795  -12.7901    4.3633 O.2       1 <0>        -0.4989
     20 O4          1.7135  -13.1524    2.5054 O.3       1 <0>        -0.2955
     21 C17         1.9329  -14.4875    2.6337 C.ar      1 <0>         0.0836
     22 C18         1.2400  -15.2170    3.5893 C.ar      1 <0>        -0.1205
     23 C19         1.4645  -16.5738    3.7174 C.ar      1 <0>        -0.1021
     24 C20         2.3788  -17.2053    2.8942 C.ar      1 <0>        -0.0832
     25 C21         3.0705  -16.4808    1.9414 C.ar      1 <0>        -0.0736
     26 C22         2.8458  -15.1244    1.8057 C.ar      1 <0>        -0.1157
     27 C23         4.0665  -17.1722    1.0464 C.3       1 <0>        -0.1184
     28 C24         2.6221  -18.6857    3.0365 C.3       1 <0>        -0.1195
     29 H1          0.9531    1.8925   -0.0454 H         1 <0>         0.0540
     30 H2         -0.6251    1.8757   -0.8684 H         1 <0>         0.0541
     31 H3         -0.5486    1.8746    0.9100 H         1 <0>         0.0539
     32 H4         -1.0748   -0.3871    0.0404 H         1 <0>         0.0612
     33 H5          0.4269   -0.3693   -0.9149 H         1 <0>         0.0612
     34 H6          1.7502   -0.1400    1.1695 H         1 <0>         0.0638
     35 H7          0.2485   -0.1579    2.1249 H         1 <0>         0.0638
     36 H8         -0.2778   -2.4197    1.2553 H         1 <0>         0.0655
     37 H9          1.2240   -2.4018    0.3000 H         1 <0>         0.0655
     38 H10         2.5473   -2.1725    2.3844 H         1 <0>         0.0751
     39 H11         1.0455   -2.1904    3.3398 H         1 <0>         0.0751
     40 H12         0.5193   -4.4522    2.4702 H         1 <0>         0.0645
     41 H13         2.0210   -4.4343    1.5149 H         1 <0>         0.0644
     42 H14         1.2670   -6.3308    1.9344 H         1 <0>         0.1417
     43 H15         1.4620   -8.7654    2.1938 H         1 <0>         0.1370
     44 H16         3.7253   -8.1911    5.7993 H         1 <0>         0.1430
     45 H17         4.7513   -5.4090    7.4466 H         1 <0>         0.1036
     46 H18         3.6616   -6.8142    7.3656 H         1 <0>         0.0567
     47 H19         5.1634   -6.7963    6.4103 H         1 <0>         0.0567
     48 H20         3.2608  -10.5078    5.0142 H         1 <0>         0.1401
     49 H21         1.6258  -10.5127    2.4188 H         1 <0>         0.1441
     50 H22         0.5261  -14.7242    4.2327 H         1 <0>         0.1273
     51 H23         0.9257  -17.1420    4.4612 H         1 <0>         0.1308
     52 H24         3.3833  -14.5596    1.0584 H         1 <0>         0.1308
     53 H25         3.5623  -17.5268    0.1474 H         1 <0>         0.0747
     54 H26         4.8536  -16.4710    0.7689 H         1 <0>         0.0678
     55 H27         4.5040  -18.0187    1.5755 H         1 <0>         0.0745
     56 H28         1.9361  -19.2307    2.3879 H         1 <0>         0.0741
     57 H29         3.6494  -18.9141    2.7525 H         1 <0>         0.0729
     58 H30         2.4567  -18.9833    4.0720 H         1 <0>         0.0682
@<TRIPOS>BOND
     1    1    2 1
     2    1   29 1
     3    1   30 1
     4    1   31 1
     5    2    3 1
     6    2   32 1
     7    2   33 1
     8    3    4 1
     9    3   34 1
    10    3   35 1
    11    4    5 1
    12    4   36 1
    13    4   37 1
    14    5    6 1
    15    5   38 1
    16    5   39 1
    17    6    7 1
    18    6   40 1
    19    6   41 1
    20    7    8 1
    21    8   13 ar
    22    8    9 ar
    23    9   10 ar
    24    9   42 1
    25   10   11 ar
    26   10   43 1
    27   11   12 ar
    28   11   16 1
    29   12   13 ar
    30   12   44 1
    31   13   14 1
    32   14   15 1
    33   15   45 1
    34   15   46 1
    35   15   47 1
    36   16   17 2
    37   16   48 1
    38   17   18 1
    39   17   49 1
    40   18   19 2
    41   18   20 1
    42   20   21 1
    43   21   26 ar
    44   21   22 ar
    45   22   23 ar
    46   22   50 1
    47   23   24 ar
    48   23   51 1
    49   24   25 ar
    50   24   28 1
    51   25   26 ar
    52   25   27 1
    53   26   52 1
    54   27   53 1
    55   27   54 1
    56   27   55 1
    57   28   56 1
    58   28   57 1
    59   28   58 1
@<TRIPOS>MOLECULE
ZINC04561138
   57    58     0     0     0
SMALL
USER_CHARGES

@<TRIPOS>ATOM
      1 C1         -0.4462    1.5474    0.1770 C.3       1 <0>        -0.1537
      2 C2         -0.2709    0.0279    0.1447 C.3       1 <0>        -0.1244
      3 C3          0.4624   -0.4279    1.4078 C.3       1 <0>        -0.1059
      4 C4          0.6377   -1.9475    1.3754 C.3       1 <0>        -0.1407
      5 C5          1.4641   -2.3831    2.5580 C.2       1 <0>         0.5159
      6 O1          1.7951   -1.5732    3.3978 O.2       1 <0>        -0.5272
      7 N1          1.8352   -3.6728    2.6823 N.am      1 <0>        -0.6078
      8 C6          1.5247   -4.6303    1.6179 C.3       1 <0>         0.1090
      9 C7          2.6751   -4.6629    0.6097 C.3       1 <0>        -0.1393
     10 C8          2.3508   -5.6629   -0.5020 C.3       1 <0>        -0.1223
     11 C9          3.5012   -5.6955   -1.5102 C.3       1 <0>        -0.1534
     12 C10         2.5492   -4.1172    3.8819 C.3       1 <0>         0.1902
     13 C11         1.5538   -4.4736    4.9558 C.2       1 <0>        -0.0002
     14 C12         0.3093   -3.9690    5.0791 C.2       1 <0>        -0.1742
     15 C13        -0.2782   -4.5676    6.2112 C.2       1 <0>        -0.1983
     16 C14         0.6297   -5.4151    6.7365 C.2       1 <0>        -0.0128
     17 N2          1.7540   -5.3661    5.9668 N.pl3     1 <0>        -0.4353
     18 C15         2.9766   -6.1413    6.1914 C.3       1 <0>         0.1442
     19 C16         3.9595   -5.3128    6.9779 C.ar      1 <0>        -0.1175
     20 C17         4.8932   -4.5361    6.3174 C.ar      1 <0>        -0.0964
     21 C18         5.7946   -3.7762    7.0387 C.ar      1 <0>        -0.1246
     22 C19         5.7623   -3.7924    8.4208 C.ar      1 <0>        -0.1050
     23 C20         4.8282   -4.5682    9.0811 C.ar      1 <0>        -0.1218
     24 C21         3.9238   -5.3250    8.3595 C.ar      1 <0>        -0.0626
     25 C22         2.9020   -6.1669    9.0794 C.3       1 <0>        -0.1279
     26 H1          0.5325    2.0252    0.2214 H         1 <0>         0.0544
     27 H2         -0.9687    1.8721   -0.7228 H         1 <0>         0.0543
     28 H3         -1.0274    1.8275    1.0556 H         1 <0>         0.0549
     29 H4         -1.2496   -0.4499    0.1003 H         1 <0>         0.0617
     30 H5          0.3103   -0.2522   -0.7339 H         1 <0>         0.0610
     31 H6          1.4411    0.0499    1.4521 H         1 <0>         0.0691
     32 H7         -0.1188   -0.1479    2.2863 H         1 <0>         0.0698
     33 H8         -0.3401   -2.4271    1.4190 H         1 <0>         0.0945
     34 H9          1.1428   -2.2354    0.4534 H         1 <0>         0.0917
     35 H10         1.3913   -5.6224    2.0491 H         1 <0>         0.0795
     36 H11         0.6075   -4.3273    1.1128 H         1 <0>         0.0830
     37 H12         2.8085   -3.6708    0.1784 H         1 <0>         0.0665
     38 H13         3.5923   -4.9659    1.1147 H         1 <0>         0.0656
     39 H14         2.2174   -6.6550   -0.0707 H         1 <0>         0.0635
     40 H15         1.4336   -5.3599   -1.0070 H         1 <0>         0.0648
     41 H16         4.4184   -5.9984   -1.0052 H         1 <0>         0.0535
     42 H17         3.2701   -6.4079   -2.3022 H         1 <0>         0.0559
     43 H18         3.6345   -4.7034   -1.9415 H         1 <0>         0.0544
     44 H19         3.1535   -4.9920    3.6419 H         1 <0>         0.0781
     45 H20         3.1960   -3.3153    4.2377 H         1 <0>         0.0946
     46 H21        -0.1521   -3.2398    4.4296 H         1 <0>         0.1250
     47 H22        -1.2727   -4.3816    6.5890 H         1 <0>         0.1334
     48 H23         0.4889   -6.0299    7.6132 H         1 <0>         0.1609
     49 H24         2.7358   -7.0462    6.7494 H         1 <0>         0.1009
     50 H25         3.4163   -6.4126    5.2316 H         1 <0>         0.0929
     51 H26         4.9185   -4.5234    5.2377 H         1 <0>         0.1196
     52 H27         6.5244   -3.1700    6.5227 H         1 <0>         0.1246
     53 H28         6.4671   -3.1992    8.9845 H         1 <0>         0.1246
     54 H29         4.8032   -4.5812   10.1607 H         1 <0>         0.1244
     55 H30         3.3441   -7.1272    9.3446 H         1 <0>         0.0740
     56 H31         2.5803   -5.6525    9.9850 H         1 <0>         0.0718
     57 H32         2.0423   -6.3298    8.4294 H         1 <0>         0.0691
@<TRIPOS>BOND
     1    1    2 1
     2    1   26 1
     3    1   27 1
     4    1   28 1
     5    2    3 1
     6    2   29 1
     7    2   30 1
     8    3    4 1
     9    3   31 1
    10    3   32 1
    11    4    5 1
    12    4   33 1
    13    4   34 1
    14    5    6 2
    15    5    7 am
    16    7    8 1
    17    7   12 1
    18    8    9 1
    19    8   35 1
    20    8   36 1
    21    9   10 1
    22    9   37 1
    23    9   38 1
    24   10   11 1
    25   10   39 1
    26   10   40 1
    27   11   41 1
    28   11   42 1
    29   11   43 1
    30   12   13 1
    31   12   44 1
    32   12   45 1
    33   13   17 1
    34   13   14 2
    35   14   15 1
    36   14   46 1
    37   15   16 2
    38   15   47 1
    39   16   17 1
    40   16   48 1
    41   17   18 1
    42   18   19 1
    43   18   49 1
    44   18   50 1
    45   19   24 ar
    46   19   20 ar
    47   20   21 ar
    48   20   51 1
    49   21   22 ar
    50   21   52 1
    51   22   23 ar
    52   22   53 1
    53   23   24 ar
    54   23   54 1
    55   24   25 1
    56   25   55 1
    57   25   56 1
    58   25   57 1
@<TRIPOS>MOLECULE
ZINC04202299
   51    50     0     0     0
SMALL
USER_CHARGES
16-bromohexadecan-1-ol
@<TRIPOS>ATOM
      1 C1          4.8877    9.5792    0.0068 C.3       1 <0>        -0.1207
      2 C2          6.2768   10.2205   -0.0030 C.3       1 <0>        -0.1207
      3 C3          6.1354   11.7439    0.0065 C.3       1 <0>        -0.1206
      4 C4          7.5244   12.3852   -0.0033 C.3       1 <0>        -0.1208
      5 C5          7.3830   13.9086    0.0063 C.3       1 <0>        -0.1205
      6 C6          8.7721   14.5499   -0.0036 C.3       1 <0>        -0.1197
      7 C7          8.6306   16.0733    0.0060 C.3       1 <0>        -0.1197
      8 C8         10.0197   16.7145   -0.0038 C.3       1 <0>        -0.1216
      9 C9          9.8782   18.2380    0.0057 C.3       1 <0>        -0.0784
     10 Br1        11.6631   19.0620   -0.0069 Br        1 <0>        -0.1658
     11 C10         5.0292    8.0558   -0.0027 C.3       1 <0>        -0.1206
     12 C11         3.6401    7.4145    0.0071 C.3       1 <0>        -0.1208
     13 C12         3.7816    5.8911   -0.0024 C.3       1 <0>        -0.1204
     14 C13         2.3925    5.2499    0.0074 C.3       1 <0>        -0.1196
     15 C14         2.5340    3.7264   -0.0021 C.3       1 <0>        -0.1178
     16 C15         1.1449    3.0852    0.0077 C.3       1 <0>        -0.1221
     17 C16         1.2864    1.5618   -0.0018 C.3       1 <0>         0.0735
     18 O1         -0.0110    0.9628    0.0073 O.3       1 <0>        -0.5769
     19 H1          4.3340    9.8982   -0.8762 H         1 <0>         0.0604
     20 H2          4.3510    9.8887    0.9037 H         1 <0>         0.0604
     21 H3          6.8305    9.9015    0.8800 H         1 <0>         0.0604
     22 H4          6.8135    9.9110   -0.8998 H         1 <0>         0.0604
     23 H5          5.5817   12.0629   -0.8765 H         1 <0>         0.0605
     24 H6          5.5986   12.0534    0.9034 H         1 <0>         0.0605
     25 H7          8.0781   12.0662    0.8798 H         1 <0>         0.0608
     26 H8          8.0612   12.0757   -0.9001 H         1 <0>         0.0608
     27 H9          6.8293   14.2276   -0.8768 H         1 <0>         0.0612
     28 H10         6.8463   14.2180    0.9031 H         1 <0>         0.0612
     29 H11         9.3258   14.2308    0.8795 H         1 <0>         0.0629
     30 H12         9.3088   14.2404   -0.9004 H         1 <0>         0.0629
     31 H13         8.0769   16.3923   -0.8771 H         1 <0>         0.0649
     32 H14         8.0939   16.3827    0.9028 H         1 <0>         0.0649
     33 H15        10.5734   16.3955    0.8792 H         1 <0>         0.0747
     34 H16        10.5564   16.4051   -0.9007 H         1 <0>         0.0747
     35 H17         9.3245   18.5570   -0.8774 H         1 <0>         0.0985
     36 H18         9.3415   18.5474    0.9025 H         1 <0>         0.0984
     37 H19         5.5829    7.7368    0.8803 H         1 <0>         0.0604
     38 H20         5.5659    7.7464   -0.8995 H         1 <0>         0.0604
     39 H21         3.0864    7.7336   -0.8759 H         1 <0>         0.0608
     40 H22         3.1034    7.7240    0.9039 H         1 <0>         0.0608
     41 H23         4.3353    5.5721    0.8806 H         1 <0>         0.0611
     42 H24         4.3183    5.5817   -0.8992 H         1 <0>         0.0611
     43 H25         1.8388    5.5689   -0.8756 H         1 <0>         0.0626
     44 H26         1.8558    5.5593    0.9042 H         1 <0>         0.0626
     45 H27         3.0877    3.4074    0.8809 H         1 <0>         0.0633
     46 H28         3.0707    3.4170   -0.8989 H         1 <0>         0.0633
     47 H29         0.5912    3.4042   -0.8753 H         1 <0>         0.0690
     48 H30         0.6082    3.3946    0.9045 H         1 <0>         0.0690
     49 H31         1.8401    1.2428    0.8812 H         1 <0>         0.0448
     50 H32         1.8231    1.2523   -0.8987 H         1 <0>         0.0448
     51 H33         0.0021   -0.0041    0.0020 H         1 <0>         0.3805
@<TRIPOS>BOND
     1    1    2 1
     2    1   11 1
     3    1   19 1
     4    1   20 1
     5    2    3 1
     6    2   21 1
     7    2   22 1
     8    3    4 1
     9    3   23 1
    10    3   24 1
    11    4    5 1
    12    4   25 1
    13    4   26 1
    14    5    6 1
    15    5   27 1
    16    5   28 1
    17    6    7 1
    18    6   29 1
    19    6   30 1
    20    7    8 1
    21    7   31 1
    22    7   32 1
    23    8    9 1
    24    8   33 1
    25    8   34 1
    26    9   10 1
    27    9   35 1
    28    9   36 1
    29   11   12 1
    30   11   37 1
    31   11   38 1
    32   12   13 1
    33   12   39 1
    34   12   40 1
    35   13   14 1
    36   13   41 1
    37   13   42 1
    38   14   15 1
    39   14   43 1
    40   14   44 1
    41   15   16 1
    42   15   45 1
    43   15   46 1
    44   16   17 1
    45   16   47 1
    46   16   48 1
    47   17   18 1
    48   17   49 1
    49   17   50 1
    50   18   51 1
@<TRIPOS>MOLECULE
ZINC06425042
   59    59     0     0     0
SMALL
USER_CHARGES
13-[(1R)-1-cyclopent-2-enyl]tridecyl methanesulfonate
@<TRIPOS>ATOM
      1 C1         -0.5655   -0.5979   -7.6370 C.3       1 <0>        -0.7009
      2 S1         -0.1229    1.1526   -7.4630 S.o2      1 <0>         2.6218
      3 O1         -0.7864    1.9260   -8.4534 O.2       1 <0>        -0.9341
      4 O2          1.2769    1.2855   -7.2575 O.2       1 <0>        -0.9684
      5 O3         -0.7516    1.5860   -6.1463 O.3       1 <0>        -0.7320
      6 C2         -0.0604    1.1126   -4.9886 C.3       1 <0>         0.0596
      7 C3         -0.7766    1.6061   -3.7298 C.3       1 <0>        -0.1193
      8 C4         -0.0366    1.0992   -2.4903 C.3       1 <0>        -0.1223
      9 C5         -0.7527    1.5927   -1.2315 C.3       1 <0>        -0.1197
     10 C6         -0.0127    1.0858    0.0080 C.3       1 <0>        -0.1210
     11 C7         -0.7288    1.5792    1.2668 C.3       1 <0>        -0.1210
     12 C8          0.0111    1.0724    2.5063 C.3       1 <0>        -0.1206
     13 C9         -0.7050    1.5658    3.7651 C.3       1 <0>        -0.1207
     14 C10         0.0350    1.0590    5.0047 C.3       1 <0>        -0.1206
     15 C11        -0.6811    1.5524    6.2635 C.3       1 <0>        -0.1204
     16 C12         0.0589    1.0456    7.5030 C.3       1 <0>        -0.1205
     17 C13        -0.6573    1.5390    8.7618 C.3       1 <0>        -0.1201
     18 C14         0.0827    1.0321   10.0013 C.3       1 <0>        -0.1100
     19 C15        -0.6334    1.5256   11.2601 C.3       1 <0>        -0.0695
     20 H1         -0.7214    2.6119   11.2449 H         1 <0>         0.0800
     21 C16         0.1226    1.0617   12.5268 C.3       1 <0>        -0.1230
     22 C17        -1.0493    0.7679   13.4920 C.3       1 <0>        -0.1032
     23 C18        -2.2257    0.4752   12.5900 C.2       1 <0>        -0.1702
     24 C19        -1.9989    0.8884   11.3729 C.2       1 <0>        -0.1607
     25 H2         -1.6507   -0.6982   -7.6560 H         1 <0>         0.1325
     26 H3         -0.1483   -0.9876   -8.5655 H         1 <0>         0.1352
     27 H4         -0.1634   -1.1598   -6.7939 H         1 <0>         0.1260
     28 H5          0.9622    1.4899   -4.9964 H         1 <0>         0.1044
     29 H6         -0.0456    0.0228   -4.9946 H         1 <0>         0.0826
     30 H7         -1.7991    1.2288   -3.7221 H         1 <0>         0.0800
     31 H8         -0.7913    2.6960   -3.7239 H         1 <0>         0.0826
     32 H9          0.9860    1.4765   -2.4981 H         1 <0>         0.0700
     33 H10        -0.0218    0.0093   -2.4963 H         1 <0>         0.0676
     34 H11        -1.7753    1.2154   -1.2238 H         1 <0>         0.0642
     35 H12        -0.7675    2.6825   -1.2255 H         1 <0>         0.0651
     36 H13         0.0021   -0.0041    0.0020 H         1 <0>         0.0616
     37 H14         1.0099    1.4631    0.0003 H         1 <0>         0.0624
     38 H15        -0.7436    2.6691    1.2728 H         1 <0>         0.0613
     39 H16        -1.7514    1.2020    1.2746 H         1 <0>         0.0609
     40 H17         0.0259   -0.0175    2.5003 H         1 <0>         0.0603
     41 H18         1.0337    1.4497    2.4986 H         1 <0>         0.0607
     42 H19        -0.7198    2.6557    3.7711 H         1 <0>         0.0605
     43 H20        -1.7276    1.1885    3.7729 H         1 <0>         0.0602
     44 H21         0.0498   -0.0309    4.9987 H         1 <0>         0.0601
     45 H22         1.0576    1.4363    4.9969 H         1 <0>         0.0604
     46 H23        -0.6959    2.6423    6.2695 H         1 <0>         0.0604
     47 H24        -1.7037    1.1751    6.2712 H         1 <0>         0.0601
     48 H25         0.0736   -0.0443    7.4970 H         1 <0>         0.0601
     49 H26         1.0815    1.4228    7.4953 H         1 <0>         0.0603
     50 H27        -0.6721    2.6289    8.7678 H         1 <0>         0.0602
     51 H28        -1.6799    1.1617    8.7695 H         1 <0>         0.0621
     52 H29         0.0975   -0.0577    9.9953 H         1 <0>         0.0625
     53 H30         1.1053    1.4094    9.9936 H         1 <0>         0.0625
     54 H31         0.7017    0.1598   12.3285 H         1 <0>         0.0714
     55 H32         0.7597    1.8563   12.9152 H         1 <0>         0.0713
     56 H33        -1.2556    1.6384   14.1148 H         1 <0>         0.0739
     57 H34        -0.8231   -0.0981   14.1142 H         1 <0>         0.0691
     58 H35        -3.1346   -0.0123   12.9103 H         1 <0>         0.1219
     59 H36        -2.6958    0.7883   10.5539 H         1 <0>         0.1221
@<TRIPOS>BOND
     1    1    2 1
     2    1   25 1
     3    1   26 1
     4    1   27 1
     5    2    3 2
     6    2    4 2
     7    2    5 1
     8    5    6 1
     9    6    7 1
    10    6   28 1
    11    6   29 1
    12    7    8 1
    13    7   30 1
    14    7   31 1
    15    8    9 1
    16    8   32 1
    17    8   33 1
    18    9   10 1
    19    9   34 1
    20    9   35 1
    21   10   11 1
    22   10   36 1
    23   10   37 1
    24   11   12 1
    25   11   38 1
    26   11   39 1
    27   12   13 1
    28   12   40 1
    29   12   41 1
    30   13   14 1
    31   13   42 1
    32   13   43 1
    33   14   15 1
    34   14   44 1
    35   14   45 1
    36   15   16 1
    37   15   46 1
    38   15   47 1
    39   16   17 1
    40   16   48 1
    41   16   49 1
    42   17   18 1
    43   17   50 1
    44   17   51 1
    45   18   19 1
    46   18   52 1
    47   18   53 1
    48   19   20 1
    49   19   24 1
    50   19   21 1
    51   21   22 1
    52   21   54 1
    53   21   55 1
    54   22   23 1
    55   22   56 1
    56   22   57 1
    57   23   24 2
    58   23   58 1
    59   24   59 1
@<TRIPOS>MOLECULE
ZINC36578820
   62    62     0     0     0
SMALL
USER_CHARGES

@<TRIPOS>ATOM
      1 C1          0.2069    0.9630   -1.7570 C.3       1 <0>        -0.1532
      2 C2          0.1478   -0.5223   -1.3945 C.3       1 <0>        -0.1248
      3 C3         -1.3057   -0.9284   -1.1427 C.3       1 <0>        -0.1053
      4 C4         -1.3648   -2.4136   -0.7802 C.3       1 <0>        -0.1395
      5 C5         -2.7964   -2.8136   -0.5322 C.2       1 <0>         0.5192
      6 O1         -3.6822   -1.9917   -0.6352 O.2       1 <0>        -0.5377
      7 N1         -3.0923   -4.0847   -0.1958 N.am      1 <0>        -0.5867
      8 C6         -2.0223   -5.0776   -0.0714 C.3       1 <0>         0.1165
      9 C7         -1.4088   -4.9935    1.3277 C.3       1 <0>        -0.1460
     10 C8         -0.2077   -5.9372    1.4155 C.3       1 <0>        -0.1490
     11 C9         -4.4841   -4.4736    0.0453 C.3       1 <0>         0.1661
     12 H1         -5.1175   -3.5867    0.0267 H         1 <0>         0.1301
     13 C10        -4.5931   -5.1407    1.3922 C.ar      1 <0>        -0.1078
     14 C11        -4.6901   -6.5173    1.4760 C.ar      1 <0>        -0.0928
     15 C12        -4.7902   -7.1291    2.7113 C.ar      1 <0>        -0.1246
     16 C13        -4.7928   -6.3645    3.8632 C.ar      1 <0>        -0.0681
     17 C14        -4.6949   -4.9884    3.7795 C.ar      1 <0>        -0.1224
     18 C15        -4.5905   -4.3767    2.5440 C.ar      1 <0>        -0.0486
     19 C16        -4.4785   -2.8766    2.4529 C.3       1 <0>        -0.1298
     20 C17        -4.9028   -7.0315    5.2100 C.3       1 <0>        -0.1185
     21 C18        -4.9308   -5.4326   -1.0279 C.2       1 <0>         0.5099
     22 O2         -4.1273   -5.8671   -1.8257 O.2       1 <0>        -0.5267
     23 N2         -6.2233   -5.8074   -1.1012 N.am      1 <0>        -0.7273
     24 C19        -6.6379   -6.8218   -2.0736 C.3       1 <0>         0.1190
     25 C20        -8.1439   -7.0615   -1.9498 C.3       1 <0>        -0.1323
     26 C21        -8.5768   -8.1208   -2.9653 C.3       1 <0>        -0.1215
     27 C22       -10.0829   -8.3606   -2.8416 C.3       1 <0>        -0.1533
     28 H2          1.2423    1.2523   -1.9364 H         1 <0>         0.0544
     29 H3         -0.3813    1.1409   -2.6573 H         1 <0>         0.0546
     30 H4         -0.1984    1.5539   -0.9356 H         1 <0>         0.0545
     31 H5          0.5530   -1.1132   -2.2159 H         1 <0>         0.0619
     32 H6          0.7359   -0.7002   -0.4942 H         1 <0>         0.0617
     33 H7         -1.7109   -0.3375   -0.3213 H         1 <0>         0.0696
     34 H8         -1.8938   -0.7505   -2.0430 H         1 <0>         0.0695
     35 H9         -0.9595   -3.0045   -1.6016 H         1 <0>         0.0954
     36 H10        -0.7766   -2.5916    0.1201 H         1 <0>         0.0957
     37 H11        -2.4322   -6.0752   -0.2290 H         1 <0>         0.0863
     38 H12        -1.2534   -4.8786   -0.8178 H         1 <0>         0.0792
     39 H13        -1.0828   -3.9715    1.5207 H         1 <0>         0.0627
     40 H14        -2.1535   -5.2834    2.0690 H         1 <0>         0.0708
     41 H15         0.2294   -5.8773    2.4122 H         1 <0>         0.0574
     42 H16        -0.5337   -6.9592    1.2225 H         1 <0>         0.0554
     43 H17         0.5370   -5.6473    0.6742 H         1 <0>         0.0561
     44 H18        -4.6881   -7.1145    0.5761 H         1 <0>         0.1195
     45 H19        -4.8666   -8.2044    2.7767 H         1 <0>         0.1232
     46 H20        -4.6973   -4.3911    4.6793 H         1 <0>         0.1245
     47 H21        -5.4762   -2.4377    2.4429 H         1 <0>         0.0740
     48 H22        -3.9249   -2.5007    3.3133 H         1 <0>         0.0679
     49 H23        -3.9535   -2.6064    1.5367 H         1 <0>         0.0771
     50 H24        -3.9053   -7.2625    5.5837 H         1 <0>         0.0728
     51 H25        -5.4058   -6.3615    5.9073 H         1 <0>         0.0679
     52 H26        -5.4770   -7.9530    5.1133 H         1 <0>         0.0679
     53 H27        -6.8791   -5.4056   -0.5101 H         1 <0>         0.4026
     54 H28        -6.4066   -6.4754   -3.0809 H         1 <0>         0.0688
     55 H29        -6.1046   -7.7521   -1.8779 H         1 <0>         0.0673
     56 H30        -8.3751   -7.4079   -0.9425 H         1 <0>         0.0700
     57 H31        -8.6772   -6.1312   -2.1455 H         1 <0>         0.0700
     58 H32        -8.3456   -7.7745   -3.9727 H         1 <0>         0.0653
     59 H33        -8.0436   -9.0511   -2.7697 H         1 <0>         0.0650
     60 H34       -10.3913   -9.1153   -3.5651 H         1 <0>         0.0568
     61 H35       -10.3141   -8.7069   -1.8343 H         1 <0>         0.0547
     62 H36       -10.6161   -7.4303   -3.0373 H         1 <0>         0.0548
@<TRIPOS>BOND
     1    1    2 1
     2    1   28 1
     3    1   29 1
     4    1   30 1
     5    2    3 1
     6    2   31 1
     7    2   32 1
     8    3    4 1
     9    3   33 1
    10    3   34 1
    11    4    5 1
    12    4   35 1
    13    4   36 1
    14    5    6 2
    15    5    7 am
    16    7    8 1
    17    7   11 1
    18    8    9 1
    19    8   37 1
    20    8   38 1
    21    9   10 1
    22    9   39 1
    23    9   40 1
    24   10   41 1
    25   10   42 1
    26   10   43 1
    27   11   12 1
    28   11   13 1
    29   11   21 1
    30   13   18 ar
    31   13   14 ar
    32   14   15 ar
    33   14   44 1
    34   15   16 ar
    35   15   45 1
    36   16   17 ar
    37   16   20 1
    38   17   18 ar
    39   17   46 1
    40   18   19 1
    41   19   47 1
    42   19   48 1
    43   19   49 1
    44   20   50 1
    45   20   51 1
    46   20   52 1
    47   21   22 2
    48   21   23 am
    49   23   24 1
    50   23   53 1
    51   24   25 1
    52   24   54 1
    53   24   55 1
    54   25   26 1
    55   25   56 1
    56   25   57 1
    57   26   27 1
    58   26   58 1
    59   26   59 1
    60   27   60 1
    61   27   61 1
    62   27   62 1
@<TRIPOS>MOLECULE
ZINC43199206
   66    67     0     0     0
SMALL
USER_CHARGES

@<TRIPOS>ATOM
      1 C1         -0.0157    1.3058    0.0092 C.2       1 <0>        -0.1955
      2 C2          0.0021   -0.0041    0.0020 C.2       1 <0>        -0.1558
      3 C3          1.3172   -0.7397   -0.0145 C.3       1 <0>        -0.0968
      4 C4          1.3696   -1.7171    1.1615 C.3       1 <0>        -0.1157
      5 C5          2.7049   -2.4640    1.1447 C.3       1 <0>        -0.1232
      6 C6          2.7573   -3.4414    2.3206 C.3       1 <0>        -0.1192
      7 C7          4.0925   -4.1883    2.3039 C.3       1 <0>        -0.1340
      8 C8          4.1449   -5.1657    3.4798 C.3       1 <0>        -0.0656
      9 C9          5.4882   -5.9171    3.4630 C.3       1 <0>        -0.4996
     10 C10         5.6800   -6.9729    2.3074 C.3       1 <0>        -0.0956
     11 C11         6.7396   -6.5156    1.3573 C.3       1 <0>        -0.1744
     12 C12         7.9826   -7.1806    1.8885 C.3       1 <0>        -0.1574
     13 C13         8.9481   -6.5143    2.7563 C.3       1 <0>        -0.0900
     14 C14         8.2095   -6.2776    4.1281 C.3       1 <0>        -0.4893
     15 S1          7.0240   -4.9309    3.7376 S.o2      1 <0>         2.3539
     16 O1          7.4254   -4.2608    2.5578 O.2       1 <0>        -0.9322
     17 O2          6.8506   -4.1426    4.9211 O.2       1 <0>        -0.9380
     18 C15         7.2606   -7.3905    4.5585 C.3       1 <0>        -0.1288
     19 C16         5.7820   -6.9593    4.6328 C.3       1 <0>        -0.1433
     20 C17         9.1947   -5.8879    5.2329 C.3       1 <0>        -0.0841
     21 C18         9.9923   -4.6581    4.7945 C.3       1 <0>        -0.1424
     22 C19        10.9771   -4.2686    5.8989 C.3       1 <0>        -0.1163
     23 C20        11.7747   -3.0387    5.4605 C.3       1 <0>        -0.1191
     24 C21        12.7594   -2.6493    6.5648 C.3       1 <0>        -0.0956
     25 C22        13.5450   -1.4379    6.1330 C.2       1 <0>        -0.1562
     26 C23        13.5670   -0.3680    6.8885 C.2       1 <0>        -0.1950
     27 H1          0.9122    1.8585    0.0033 H         1 <0>         0.0958
     28 H2         -0.9582    1.8330    0.0166 H         1 <0>         0.0963
     29 H3         -0.9258   -0.5567    0.0079 H         1 <0>         0.1071
     30 H4          1.4134   -1.2911   -0.9498 H         1 <0>         0.0715
     31 H5          2.1349   -0.0241    0.0711 H         1 <0>         0.0665
     32 H6          1.2735   -1.1657    2.0968 H         1 <0>         0.0631
     33 H7          0.5519   -2.4327    1.0758 H         1 <0>         0.0629
     34 H8          2.8010   -3.0154    0.2094 H         1 <0>         0.0639
     35 H9          3.5226   -1.7484    1.2303 H         1 <0>         0.0640
     36 H10         2.6611   -2.8900    3.2560 H         1 <0>         0.0651
     37 H11         1.9396   -4.1570    2.2350 H         1 <0>         0.0657
     38 H12         4.1887   -4.7397    1.3686 H         1 <0>         0.0746
     39 H13         4.9102   -3.4727    2.3895 H         1 <0>         0.0623
     40 H14         4.0488   -4.6143    4.4151 H         1 <0>         0.0791
     41 H15         3.3272   -5.8813    3.3942 H         1 <0>         0.0859
     42 H16         5.9340   -7.9408    2.7340 H         1 <0>         0.0897
     43 H17         4.7288   -7.0726    1.7707 H         1 <0>         0.0751
     44 H18         6.5198   -6.9171    0.3497 H         1 <0>         0.0845
     45 H19         6.8145   -5.4465    1.2759 H         1 <0>         0.1225
     46 H20         7.6981   -8.1469    2.3133 H         1 <0>         0.0746
     47 H21         8.5517   -7.4830    0.9760 H         1 <0>         0.0610
     48 H22         9.8292   -7.1372    2.9319 H         1 <0>         0.0961
     49 H23         9.2656   -5.5524    2.3495 H         1 <0>         0.0979
     50 H24         7.3617   -8.2612    3.9215 H         1 <0>         0.0983
     51 H25         7.5606   -7.7115    5.5710 H         1 <0>         0.0899
     52 H26         5.5838   -6.4867    5.5995 H         1 <0>         0.0831
     53 H27         5.1319   -7.8301    4.5235 H         1 <0>         0.1063
     54 H28         8.6449   -5.6580    6.1456 H         1 <0>         0.0826
     55 H29         9.8779   -6.7165    5.4194 H         1 <0>         0.0874
     56 H30        10.5422   -4.8880    3.8819 H         1 <0>         0.0749
     57 H31         9.3092   -3.8295    4.6081 H         1 <0>         0.0605
     58 H32        10.4272   -4.0387    6.8115 H         1 <0>         0.0669
     59 H33        11.6603   -5.0972    6.0853 H         1 <0>         0.0665
     60 H34        12.3245   -3.2687    4.5478 H         1 <0>         0.0646
     61 H35        11.0915   -2.2101    5.2740 H         1 <0>         0.0649
     62 H36        12.2095   -2.4193    7.4774 H         1 <0>         0.0668
     63 H37        13.4426   -3.4779    6.7512 H         1 <0>         0.0717
     64 H38        14.0899   -1.4518    5.2006 H         1 <0>         0.1076
     65 H39        14.1300    0.5002    6.5791 H         1 <0>         0.0965
     66 H40        13.0221   -0.3540    7.8209 H         1 <0>         0.0958
@<TRIPOS>BOND
     1    1    2 2
     2    1   27 1
     3    1   28 1
     4    2    3 1
     5    2   29 1
     6    3    4 1
     7    3   30 1
     8    3   31 1
     9    4    5 1
    10    4   32 1
    11    4   33 1
    12    5    6 1
    13    5   34 1
    14    5   35 1
    15    6    7 1
    16    6   36 1
    17    6   37 1
    18    7    8 1
    19    7   38 1
    20    7   39 1
    21    8    9 1
    22    8   40 1
    23    8   41 1
    24    9   15 1
    25    9   19 1
    26    9   10 1
    27   10   11 1
    28   10   42 1
    29   10   43 1
    30   11   12 1
    31   11   44 1
    32   11   45 1
    33   12   13 1
    34   12   46 1
    35   12   47 1
    36   13   14 1
    37   13   48 1
    38   13   49 1
    39   14   15 1
    40   14   18 1
    41   14   20 1
    42   15   16 2
    43   15   17 2
    44   18   19 1
    45   18   50 1
    46   18   51 1
    47   19   52 1
    48   19   53 1
    49   20   21 1
    50   20   54 1
    51   20   55 1
    52   21   22 1
    53   21   56 1
    54   21   57 1
    55   22   23 1
    56   22   58 1
    57   22   59 1
    58   23   24 1
    59   23   60 1
    60   23   61 1
    61   24   25 1
    62   24   62 1
    63   24   63 1
    64   25   26 2
    65   25   64 1
    66   26   65 1
    67   26   66 1
@<TRIPOS>MOLECULE
ZINC66165406
   62    63     0     0     0
SMALL
USER_CHARGES

@<TRIPOS>ATOM
      1 C1         -0.0187    1.5258    0.0104 C.3       1 <0>        -0.1545
      2 C2          0.0021   -0.0041    0.0020 C.3       1 <0>        -0.1259
      3 C3          0.7421   -0.5109    1.2415 C.3       1 <0>        -0.1198
      4 C4          0.7628   -2.0407    1.2331 C.3       1 <0>        -0.1175
      5 C5          1.5028   -2.5476    2.4727 C.3       1 <0>        -0.1192
      6 C6          1.5236   -4.0774    2.4642 C.3       1 <0>         0.0613
      7 O1          2.2147   -4.5508    3.6219 O.3       1 <0>        -0.3197
      8 C7          2.3235   -5.8986    3.7680 C.ar      1 <0>         0.0731
      9 C8          1.7808   -6.7453    2.8129 C.ar      1 <0>        -0.1585
     10 C9          1.8909   -8.1141    2.9604 C.ar      1 <0>        -0.1552
     11 C10         2.5451   -8.6425    4.0653 C.ar      1 <0>         0.1827
     12 C11         3.0882   -7.7941    5.0211 C.ar      1 <0>        -0.1580
     13 C12         2.9822   -6.4254    4.8691 C.ar      1 <0>        -0.1027
     14 N1          2.6567  -10.0293    4.2159 N.pl3     1 <0>        -0.7465
     15 C13         3.3471  -10.5864    5.3817 C.3       1 <0>         0.1692
     16 C14         3.3281  -12.0913    5.3051 C.ar      1 <0>        -0.0681
     17 C15         2.2821  -12.7986    5.8691 C.ar      1 <0>        -0.1391
     18 C16         2.2617  -14.1792    5.8006 C.ar      1 <0>        -0.0802
     19 C17         3.2872  -14.8558    5.1684 C.ar      1 <0>        -0.2022
     20 C18         4.3375  -14.1487    4.6019 C.ar      1 <0>         0.1305
     21 C19         4.3525  -12.7627    4.6668 C.ar      1 <0>        -0.1340
     22 O2          5.3472  -14.8119    3.9795 O.3       1 <0>        -0.3149
     23 C20         5.2629  -16.2380    3.9458 C.3       1 <0>         0.0575
     24 C21         6.4791  -16.8036    3.2097 C.3       1 <0>        -0.1152
     25 C22         6.3887  -18.3305    3.1736 C.3       1 <0>        -0.0936
     26 C23         5.1782  -18.7502    2.3373 C.3       1 <0>        -0.1541
     27 C24         7.6631  -18.9022    2.5489 C.3       1 <0>        -0.1480
     28 H1          1.0039    1.9031    0.0027 H         1 <0>         0.0539
     29 H2         -0.5459    1.8868   -0.8726 H         1 <0>         0.0538
     30 H3         -0.5289    1.8773    0.9072 H         1 <0>         0.0539
     31 H4         -1.0205   -0.3814    0.0098 H         1 <0>         0.0610
     32 H5          0.5123   -0.3556   -0.8948 H         1 <0>         0.0610
     33 H6          1.7647   -0.1336    1.2338 H         1 <0>         0.0635
     34 H7          0.2319   -0.1594    2.1383 H         1 <0>         0.0634
     35 H8         -0.2598   -2.4180    1.2409 H         1 <0>         0.0647
     36 H9          1.2730   -2.3923    0.3363 H         1 <0>         0.0648
     37 H10         2.5254   -2.1703    2.4649 H         1 <0>         0.0732
     38 H11         0.9926   -2.1961    3.3695 H         1 <0>         0.0733
     39 H12         0.5010   -4.4547    2.4720 H         1 <0>         0.0586
     40 H13         2.0337   -4.4289    1.5675 H         1 <0>         0.0586
     41 H14         1.2716   -6.3341    1.9538 H         1 <0>         0.1256
     42 H15         1.4679   -8.7732    2.2168 H         1 <0>         0.1217
     43 H16         3.5973   -8.2042    5.8808 H         1 <0>         0.1274
     44 H17         3.4087   -5.7653    5.6099 H         1 <0>         0.1293
     45 H18         2.2770  -10.6217    3.5482 H         1 <0>         0.4000
     46 H19         4.3792  -10.2362    5.3944 H         1 <0>         0.0689
     47 H20         2.8423  -10.2625    6.2919 H         1 <0>         0.0701
     48 H21         1.4800  -12.2715    6.3643 H         1 <0>         0.1259
     49 H22         1.4438  -14.7293    6.2418 H         1 <0>         0.1274
     50 H23         3.2712  -15.9344    5.1157 H         1 <0>         0.1281
     51 H24         5.1667  -12.2097    4.2223 H         1 <0>         0.1319
     52 H25         5.2425  -16.6250    4.9646 H         1 <0>         0.0620
     53 H26         4.3525  -16.5359    3.4257 H         1 <0>         0.0650
     54 H27         6.4995  -16.4167    2.1909 H         1 <0>         0.0750
     55 H28         7.3895  -16.5057    3.7298 H         1 <0>         0.0749
     56 H29         6.2789  -18.7121    4.1887 H         1 <0>         0.0728
     57 H30         4.2704  -18.3429    2.7823 H         1 <0>         0.0545
     58 H31         5.2880  -18.3686    1.3221 H         1 <0>         0.0578
     59 H32         5.1139  -19.8380    2.3115 H         1 <0>         0.0583
     60 H33         8.5255  -18.6032    3.1447 H         1 <0>         0.0568
     61 H34         7.5987  -19.9900    2.5232 H         1 <0>         0.0584
     62 H35         7.7729  -18.5206    1.5338 H         1 <0>         0.0569
@<TRIPOS>BOND
     1    1    2 1
     2    1   28 1
     3    1   29 1
     4    1   30 1
     5    2    3 1
     6    2   31 1
     7    2   32 1
     8    3    4 1
     9    3   33 1
    10    3   34 1
    11    4    5 1
    12    4   35 1
    13    4   36 1
    14    5    6 1
    15    5   37 1
    16    5   38 1
    17    6    7 1
    18    6   39 1
    19    6   40 1
    20    7    8 1
    21    8   13 ar
    22    8    9 ar
    23    9   10 ar
    24    9   41 1
    25   10   11 ar
    26   10   42 1
    27   11   12 ar
    28   11   14 1
    29   12   13 ar
    30   12   43 1
    31   13   44 1
    32   14   15 1
    33   14   45 1
    34   15   16 1
    35   15   46 1
    36   15   47 1
    37   16   21 ar
    38   16   17 ar
    39   17   18 ar
    40   17   48 1
    41   18   19 ar
    42   18   49 1
    43   19   20 ar
    44   19   50 1
    45   20   21 ar
    46   20   22 1
    47   21   51 1
    48   22   23 1
    49   23   24 1
    50   23   52 1
    51   23   53 1
    52   24   25 1
    53   24   54 1
    54   24   55 1
    55   25   26 1
    56   25   27 1
    57   25   56 1
    58   26   57 1
    59   26   58 1
    60   26   59 1
    61   27   60 1
    62   27   61 1
    63   27   62 1
@<TRIPOS>MOLECULE
ZINC01589807
   47    47     0     0     0
SMALL
USER_CHARGES
2-dec-9-enyl-5-methyl-5-nitro-1,3-dioxane
@<TRIPOS>ATOM
      1 C1         -0.6695    3.1219   -1.2896 C.3       1 <0>        -0.1445
      2 C2         -0.7583    1.5956   -1.2302 C.3       1 <0>        -0.0314
      3 C3         -0.0127    1.0858    0.0080 C.3       1 <0>         0.0656
      4 O1         -0.6865    1.5493    1.1822 O.3       1 <0>        -0.3647
      5 C4         -2.0571    1.1419    1.2562 C.3       1 <0>         0.2325
      6 O2         -2.7628    1.6282    0.1119 O.3       1 <0>        -0.3679
      7 C5         -2.2274    1.1701   -1.1335 C.3       1 <0>         0.0666
      8 C6         -2.6901    1.7131    2.5265 C.3       1 <0>        -0.1033
      9 C7         -2.0161    1.0966    3.7539 C.3       1 <0>        -0.1167
     10 C8         -2.6492    1.6679    5.0243 C.3       1 <0>        -0.1188
     11 C9         -1.9752    1.0513    6.2517 C.3       1 <0>        -0.1202
     12 C10        -2.6082    1.6226    7.5220 C.3       1 <0>        -0.1206
     13 C11        -1.9342    1.0060    8.7494 C.3       1 <0>        -0.1211
     14 C12        -2.5673    1.5773   10.0197 C.3       1 <0>        -0.1159
     15 C13        -1.8933    0.9608   11.2471 C.3       1 <0>        -0.0963
     16 C14        -2.5168    1.5234   12.4984 C.2       1 <0>        -0.1561
     17 C15        -3.0136    0.7163   13.4027 C.2       1 <0>        -0.1955
     18 N1         -0.1566    1.0217   -2.4363 N.pl3     1 <0>        -0.0088
     19 O3         -0.8421    0.8229   -3.4233 O.2       1 <0>        -0.1505
     20 O4          1.0290    0.7432   -2.4521 O.3       1 <0>        -0.1502
     21 H1          0.3765    3.4231   -1.3469 H         1 <0>         0.0817
     22 H2         -1.2002    3.4827   -2.1707 H         1 <0>         0.0816
     23 H3         -1.1216    3.5473   -0.3937 H         1 <0>         0.1097
     24 H4          0.0021   -0.0041    0.0020 H         1 <0>         0.0739
     25 H5          1.0093    1.4647    0.0003 H         1 <0>         0.1300
     26 H6         -2.1113    0.0535    1.2810 H         1 <0>         0.0669
     27 H7         -2.7899    1.6107   -1.9567 H         1 <0>         0.1303
     28 H8         -2.2967    0.0835   -1.1847 H         1 <0>         0.0743
     29 H9         -2.5571    2.7949    2.5440 H         1 <0>         0.0835
     30 H10        -3.7543    1.4777    2.5397 H         1 <0>         0.0908
     31 H11        -2.1491    0.0149    3.7365 H         1 <0>         0.0635
     32 H12        -0.9520    1.3321    3.7407 H         1 <0>         0.0734
     33 H13        -2.5162    2.7496    5.0417 H         1 <0>         0.0643
     34 H14        -3.7134    1.4324    5.0374 H         1 <0>         0.0631
     35 H15        -2.1082   -0.0304    6.2342 H         1 <0>         0.0613
     36 H16        -0.9110    1.2868    6.2385 H         1 <0>         0.0623
     37 H17        -2.4752    2.7043    7.5394 H         1 <0>         0.0616
     38 H18        -3.6724    1.3871    7.5352 H         1 <0>         0.0613
     39 H19        -2.0672   -0.0757    8.7320 H         1 <0>         0.0612
     40 H20        -0.8701    1.2415    8.7362 H         1 <0>         0.0618
     41 H21        -2.4343    2.6590   10.0372 H         1 <0>         0.0626
     42 H22        -3.6315    1.3418   10.0329 H         1 <0>         0.0621
     43 H23        -2.0263   -0.1210   11.2297 H         1 <0>         0.0656
     44 H24        -0.8291    1.1962   11.2339 H         1 <0>         0.0713
     45 H25        -2.5541    2.5922   12.6496 H         1 <0>         0.1074
     46 H26        -2.9764   -0.3525   13.2515 H         1 <0>         0.0955
     47 H27        -3.4605    1.1195   14.2994 H         1 <0>         0.0966
@<TRIPOS>BOND
     1    1    2 1
     2    1   21 1
     3    1   22 1
     4    1   23 1
     5    2    7 1
     6    2    3 1
     7    2   18 1
     8    3    4 1
     9    3   24 1
    10    3   25 1
    11    4    5 1
    12    5    6 1
    13    5    8 1
    14    5   26 1
    15    6    7 1
    16    7   27 1
    17    7   28 1
    18    8    9 1
    19    8   29 1
    20    8   30 1
    21    9   10 1
    22    9   31 1
    23    9   32 1
    24   10   11 1
    25   10   33 1
    26   10   34 1
    27   11   12 1
    28   11   35 1
    29   11   36 1
    30   12   13 1
    31   12   37 1
    32   12   38 1
    33   13   14 1
    34   13   39 1
    35   13   40 1
    36   14   15 1
    37   14   41 1
    38   14   42 1
    39   15   16 1
    40   15   43 1
    41   15   44 1
    42   16   17 2
    43   16   45 1
    44   17   46 1
    45   17   47 1
    46   18   19 2
    47   18   20 1
@<TRIPOS>MOLECULE
ZINC19737534
   53    54     0     0     0
SMALL
USER_CHARGES
N-[(4-butoxyphenyl)methyl]-4-sec-butoxy-aniline
@<TRIPOS>ATOM
      1 C1         -9.5758   -3.1403    2.1382 C.3       1 <0>        -0.1545
      2 C2         -8.1719   -2.5816    2.3788 C.3       1 <0>        -0.1224
      3 C3         -7.4040   -2.5448    1.0559 C.3       1 <0>        -0.1212
      4 C4         -6.0001   -1.9862    1.2965 C.3       1 <0>         0.0564
      5 O1         -5.2829   -1.9518    0.0610 O.3       1 <0>        -0.3146
      6 C5         -4.0097   -1.4783    0.0997 C.ar      1 <0>         0.1395
      7 C6         -3.2556   -1.4169   -1.0632 C.ar      1 <0>        -0.1550
      8 C7         -1.9617   -0.9348   -1.0213 C.ar      1 <0>        -0.0592
      9 C8         -1.4181   -0.5135    0.1782 C.ar      1 <0>        -0.1449
     10 C9         -2.1657   -0.5789    1.3395 C.ar      1 <0>        -0.0585
     11 C10        -3.4620   -1.0550    1.3020 C.ar      1 <0>        -0.2117
     12 C11        -0.0064    0.0120    0.2210 C.3       1 <0>         0.1758
     13 N1         -0.0174    1.4600   -0.0015 N.pl3     1 <0>        -0.7568
     14 C12         1.1848    2.1763   -0.0062 C.ar      1 <0>         0.1877
     15 C13         2.3878    1.5159    0.2056 C.ar      1 <0>        -0.1628
     16 C14         3.5742    2.2228    0.1956 C.ar      1 <0>        -0.1035
     17 C15         3.5634    3.5936   -0.0156 C.ar      1 <0>         0.0736
     18 C16         2.3617    4.2549   -0.2216 C.ar      1 <0>        -0.1607
     19 C17         1.1748    3.5488   -0.2171 C.ar      1 <0>        -0.1584
     20 O2          4.7317    4.2898   -0.0202 O.3       1 <0>        -0.3171
     21 C18         4.6390    5.7121   -0.1227 C.3       1 <0>         0.0825
     22 H1          3.7337    5.9946    0.4346 H         1 <0>         0.0709
     23 C19         4.5309    6.1114   -1.5957 C.3       1 <0>        -0.1817
     24 C20         5.8883    6.3500    0.4882 C.3       1 <0>        -0.1194
     25 C21         5.9302    6.0541    1.9888 C.3       1 <0>        -0.1552
     26 H2        -10.1279   -3.1668    3.0893 H         1 <0>         0.0585
     27 H3         -9.5000   -4.1588    1.7297 H         1 <0>         0.0568
     28 H4        -10.1088   -2.4970    1.4226 H         1 <0>         0.0568
     29 H5         -8.2477   -1.5631    2.7873 H         1 <0>         0.0654
     30 H6         -7.6389   -3.2249    3.0944 H         1 <0>         0.0655
     31 H7         -7.3283   -3.5633    0.6474 H         1 <0>         0.0752
     32 H8         -7.9370   -1.9014    0.3403 H         1 <0>         0.0751
     33 H9         -6.0758   -0.9677    1.7050 H         1 <0>         0.0636
     34 H10        -5.4671   -2.6296    2.0121 H         1 <0>         0.0638
     35 H11        -3.6796   -1.7461   -2.0003 H         1 <0>         0.1323
     36 H12        -1.3743   -0.8865   -1.9264 H         1 <0>         0.1307
     37 H13        -1.7372   -0.2538    2.2760 H         1 <0>         0.1259
     38 H14        -4.0471   -1.1017    2.2086 H         1 <0>         0.1288
     39 H15         0.4357   -0.2045    1.2047 H         1 <0>         0.0629
     40 H16         0.5902   -0.4751   -0.5644 H         1 <0>         0.0638
     41 H17        -0.9706    1.9841   -0.1649 H         1 <0>         0.4174
     42 H18         2.3960    0.4492    0.3742 H         1 <0>         0.1247
     43 H19         4.5104    1.7087    0.3559 H         1 <0>         0.1270
     44 H20         2.3542    5.3223   -0.3860 H         1 <0>         0.1268
     45 H21         0.2392    4.0639   -0.3772 H         1 <0>         0.1203
     46 H22         4.4595    7.2063   -1.6745 H         1 <0>         0.0708
     47 H23         3.6327    5.6528   -2.0349 H         1 <0>         0.0632
     48 H24         5.4228    5.7622   -2.1366 H         1 <0>         0.0684
     49 H25         6.7854    5.9332    0.0071 H         1 <0>         0.0748
     50 H26         5.8593    7.4381    0.3297 H         1 <0>         0.0808
     51 H27         6.8284    6.5127    2.4280 H         1 <0>         0.0572
     52 H28         5.9593    4.9660    2.1473 H         1 <0>         0.0621
     53 H29         5.0331    6.4709    2.4699 H         1 <0>         0.0525
@<TRIPOS>BOND
     1    1    2 1
     2    1   26 1
     3    1   27 1
     4    1   28 1
     5    2    3 1
     6    2   29 1
     7    2   30 1
     8    3    4 1
     9    3   31 1
    10    3   32 1
    11    4    5 1
    12    4   33 1
    13    4   34 1
    14    5    6 1
    15    6   11 ar
    16    6    7 ar
    17    7    8 ar
    18    7   35 1
    19    8    9 ar
    20    8   36 1
    21    9   10 ar
    22    9   12 1
    23   10   11 ar
    24   10   37 1
    25   11   38 1
    26   12   13 1
    27   12   39 1
    28   12   40 1
    29   13   14 1
    30   13   41 1
    31   14   19 ar
    32   14   15 ar
    33   15   16 ar
    34   15   42 1
    35   16   17 ar
    36   16   43 1
    37   17   18 ar
    38   17   20 1
    39   18   19 ar
    40   18   44 1
    41   19   45 1
    42   20   21 1
    43   21   22 1
    44   21   23 1
    45   21   24 1
    46   23   46 1
    47   23   47 1
    48   23   48 1
    49   24   25 1
    50   24   49 1
    51   24   50 1
    52   25   51 1
    53   25   52 1
    54   25   53 1
@<TRIPOS>MOLECULE
ZINC37973795
   43    42     0     0     0
SMALL
USER_CHARGES

@<TRIPOS>ATOM
      1 C1         -0.5207    1.5343   -0.6321 C.3       1 <0>        -0.1536
      2 C2         -0.2783    0.0625   -0.2916 C.3       1 <0>        -0.1215
      3 C3          0.7176   -0.5341   -1.2880 C.3       1 <0>        -0.0847
      4 H1          0.3539   -0.3771   -2.3035 H         1 <0>         0.0779
      5 C4          2.0766    0.1489   -1.1218 C.3       1 <0>        -0.1588
      6 C5          0.8652   -2.0342   -1.0254 C.3       1 <0>        -0.1020
      7 C6          1.7421   -2.6585   -2.1127 C.3       1 <0>         0.1406
      8 C7          1.1556   -2.3360   -3.4885 C.3       1 <0>        -0.1134
      9 C8         -0.2607   -2.9065   -3.5855 C.3       1 <0>        -0.1595
     10 C9          1.7885   -4.1529   -1.9241 C.2       1 <0>         0.4299
     11 O1          0.8865   -4.7180   -1.3524 O.2       1 <0>        -0.4923
     12 O2          2.8320   -4.8562   -2.3912 O.3       1 <0>        -0.3562
     13 C10         2.8101   -6.2689   -2.1771 C.3       1 <0>         0.0592
     14 C11         4.0721   -6.8948   -2.7742 C.3       1 <0>        -0.1529
     15 N1          3.1020   -2.1107   -2.0195 N.3       1 <0>        -0.6493
     16 C12         3.6981   -2.4018   -0.7088 C.3       1 <0>        -0.0003
     17 C13         5.1107   -1.8169   -0.6498 C.3       1 <0>         0.4596
     18 F1          5.0502   -0.4319   -0.8374 F         1 <0>        -0.1687
     19 F2          5.6784   -2.0941    0.5984 F         1 <0>        -0.1809
     20 F3          5.8951   -2.3901   -1.6565 F         1 <0>        -0.1818
     21 H2          0.4210    2.0802   -0.5755 H         1 <0>         0.0586
     22 H3         -0.9256    1.6119   -1.6411 H         1 <0>         0.0531
     23 H4         -1.2303    1.9594    0.0778 H         1 <0>         0.0518
     24 H5          0.1265   -0.0151    0.7175 H         1 <0>         0.0596
     25 H6         -1.2201   -0.4834   -0.3481 H         1 <0>         0.0594
     26 H7          2.7406   -0.1621   -1.9283 H         1 <0>         0.0963
     27 H8          1.9461    1.2305   -1.1552 H         1 <0>         0.0474
     28 H9          2.5112   -0.1352   -0.1634 H         1 <0>         0.0419
     29 H10         1.3293   -2.1885   -0.0512 H         1 <0>         0.0681
     30 H11        -0.1184   -2.5037   -1.0378 H         1 <0>         0.0885
     31 H12         1.1220   -1.2551   -3.6249 H         1 <0>         0.1008
     32 H13         1.7803   -2.7808   -4.2631 H         1 <0>         0.0747
     33 H14        -0.2272   -3.9874   -3.4491 H         1 <0>         0.0535
     34 H15        -0.8854   -2.4618   -2.8109 H         1 <0>         0.0669
     35 H16        -0.6786   -2.6768   -4.5657 H         1 <0>         0.0667
     36 H17         2.7743   -6.4738   -1.1071 H         1 <0>         0.0673
     37 H18         1.9302   -6.6958   -2.6584 H         1 <0>         0.0691
     38 H19         4.1080   -6.6900   -3.8442 H         1 <0>         0.0683
     39 H20         4.9521   -6.4680   -2.2929 H         1 <0>         0.0672
     40 H21         4.0555   -7.9724   -2.6110 H         1 <0>         0.0815
     41 H22         3.6840   -2.4586   -2.7667 H         1 <0>         0.3622
     42 H23         3.0870   -1.9552    0.0756 H         1 <0>         0.1278
     43 H24         3.7452   -3.4809   -0.5626 H         1 <0>         0.0780
@<TRIPOS>BOND
     1    1    2 1
     2    1   21 1
     3    1   22 1
     4    1   23 1
     5    2    3 1
     6    2   24 1
     7    2   25 1
     8    3    4 1
     9    3    5 1
    10    3    6 1
    11    5   26 1
    12    5   27 1
    13    5   28 1
    14    6    7 1
    15    6   29 1
    16    6   30 1
    17    7    8 1
    18    7   10 1
    19    7   15 1
    20    8    9 1
    21    8   31 1
    22    8   32 1
    23    9   33 1
    24    9   34 1
    25    9   35 1
    26   10   11 2
    27   10   12 1
    28   12   13 1
    29   13   14 1
    30   13   36 1
    31   13   37 1
    32   14   38 1
    33   14   39 1
    34   14   40 1
    35   15   16 1
    36   15   41 1
    37   16   17 1
    38   16   42 1
    39   16   43 1
    40   17   18 1
    41   17   19 1
    42   17   20 1
@<TRIPOS>MOLECULE
ZINC44825145
   52    51     0     0     0
SMALL
USER_CHARGES

@<TRIPOS>ATOM
      1 C1         -0.0187    1.5258    0.0104 C.3       1 <0>        -0.1519
      2 C2          0.0021   -0.0041    0.0020 C.3       1 <0>        -0.1310
      3 C3         -1.4333   -0.5336    0.0129 C.3       1 <0>        -0.0980
      4 C4         -1.4126   -2.0635    0.0045 C.3       1 <0>         0.0230
      5 C5         -0.6964   -2.5569   -1.2543 C.3       1 <0>        -0.1101
      6 C6         -1.4364   -2.0501   -2.4939 C.3       1 <0>        -0.1275
      7 C7         -0.7203   -2.5435   -3.7527 C.3       1 <0>        -0.1519
      8 C8         -0.7006   -2.5511    1.1970 C.1       1 <0>         0.2070
      9 N1         -0.1512   -2.9274    2.1173 N.1       1 <0>        -0.4025
     10 C9         -2.8264   -2.5851    0.0152 C.2       1 <0>         0.5332
     11 O1         -3.7588   -1.8096    0.0282 O.2       1 <0>        -0.5158
     12 N2         -3.0546   -3.9134    0.0102 N.am      1 <0>        -0.7188
     13 C10        -4.4290   -4.4205    0.0206 C.3       1 <0>         0.1404
     14 H1         -5.0556   -3.7596    0.6196 H         1 <0>         0.0911
     15 C11        -4.9647   -4.4713   -1.4116 C.3       1 <0>        -0.1643
     16 C12        -4.4492   -5.8268    0.6229 C.3       1 <0>        -0.1283
     17 C13        -4.0321   -5.7579    2.0933 C.3       1 <0>        -0.1226
     18 C14        -4.0523   -7.1642    2.6956 C.3       1 <0>        -0.1142
     19 C15        -3.6352   -7.0953    4.1661 C.3       1 <0>        -0.0987
     20 C16        -4.6783   -6.3018    4.9555 C.3       1 <0>        -0.1497
     21 C17        -3.5346   -8.5122    4.7346 C.3       1 <0>        -0.1484
     22 H2          1.0039    1.9031    0.0027 H         1 <0>         0.0571
     23 H3         -0.5459    1.8868   -0.8726 H         1 <0>         0.0585
     24 H4         -0.5289    1.8773    0.9072 H         1 <0>         0.0557
     25 H5          0.5123   -0.3556   -0.8948 H         1 <0>         0.0718
     26 H6          0.5293   -0.3651    0.8851 H         1 <0>         0.0597
     27 H7         -1.9435   -0.1821    0.9097 H         1 <0>         0.0800
     28 H8         -1.9605   -0.1726   -0.8702 H         1 <0>         0.0967
     29 H9          0.3262   -2.1796   -1.2621 H         1 <0>         0.0902
     30 H10        -0.6816   -3.6468   -1.2603 H         1 <0>         0.0756
     31 H11        -2.4590   -2.4274   -2.4861 H         1 <0>         0.0667
     32 H12        -1.4512   -0.9602   -2.4879 H         1 <0>         0.0756
     33 H13        -1.2475   -2.1824   -4.6357 H         1 <0>         0.0589
     34 H14         0.3023   -2.1662   -3.7604 H         1 <0>         0.0570
     35 H15        -0.7055   -3.6334   -3.7587 H         1 <0>         0.0549
     36 H16        -2.3089   -4.5336   -0.0002 H         1 <0>         0.3998
     37 H17        -4.3382   -5.1322   -2.0107 H         1 <0>         0.0582
     38 H18        -5.9873   -4.8486   -1.4039 H         1 <0>         0.0677
     39 H19        -4.9503   -3.4694   -1.8407 H         1 <0>         0.0627
     40 H20        -5.4556   -6.2390    0.5497 H         1 <0>         0.0818
     41 H21        -3.7544   -6.4656    0.0777 H         1 <0>         0.0689
     42 H22        -3.0257   -5.3457    2.1666 H         1 <0>         0.0593
     43 H23        -4.7269   -5.1191    2.6386 H         1 <0>         0.0665
     44 H24        -5.0587   -7.5764    2.6224 H         1 <0>         0.0632
     45 H25        -3.3575   -7.8030    2.1504 H         1 <0>         0.0610
     46 H26        -2.6665   -6.6020    4.2462 H         1 <0>         0.0672
     47 H27        -4.7500   -5.2924    4.5504 H         1 <0>         0.0555
     48 H28        -5.6470   -6.7951    4.8753 H         1 <0>         0.0543
     49 H29        -4.3811   -6.2527    6.0030 H         1 <0>         0.0528
     50 H30        -2.7914   -9.0774    4.1722 H         1 <0>         0.0533
     51 H31        -3.2374   -8.4631    5.7822 H         1 <0>         0.0540
     52 H32        -4.5033   -9.0054    4.6545 H         1 <0>         0.0543
@<TRIPOS>BOND
     1    1    2 1
     2    1   22 1
     3    1   23 1
     4    1   24 1
     5    2    3 1
     6    2   25 1
     7    2   26 1
     8    3    4 1
     9    3   27 1
    10    3   28 1
    11    4    5 1
    12    4    8 1
    13    4   10 1
    14    5    6 1
    15    5   29 1
    16    5   30 1
    17    6    7 1
    18    6   31 1
    19    6   32 1
    20    7   33 1
    21    7   34 1
    22    7   35 1
    23    8    9 3
    24   10   11 2
    25   10   12 am
    26   12   13 1
    27   12   36 1
    28   13   14 1
    29   13   15 1
    30   13   16 1
    31   15   37 1
    32   15   38 1
    33   15   39 1
    34   16   17 1
    35   16   40 1
    36   16   41 1
    37   17   18 1
    38   17   42 1
    39   17   43 1
    40   18   19 1
    41   18   44 1
    42   18   45 1
    43   19   20 1
    44   19   21 1
    45   19   46 1
    46   20   47 1
    47   20   48 1
    48   20   49 1
    49   21   50 1
    50   21   51 1
    51   21   52 1
@<TRIPOS>MOLECULE
ZINC59035206
   50    51     0     0     0
SMALL
USER_CHARGES

@<TRIPOS>ATOM
      1 C1         -0.0187    1.5258    0.0104 C.3       1 <0>        -0.1538
      2 C2          0.0021   -0.0041    0.0020 C.3       1 <0>        -0.1336
      3 C3          0.7182   -0.4975   -1.2568 C.3       1 <0>         0.1392
      4 H1          0.2444   -0.0644   -2.1377 H         1 <0>         0.1174
      5 C4          0.6303   -2.0233   -1.3286 C.3       1 <0>        -0.1627
      6 N1          2.1249   -0.0911   -1.2094 N.pl3     1 <0>        -0.6735
      7 C5          2.8241    0.0515   -2.3527 C.2       1 <0>         0.5685
      8 S1          2.0683   -0.2423   -3.8605 S.2       1 <0>        -0.6348
      9 N2          4.1182    0.4254   -2.3091 N.pl3     1 <0>        -0.5639
     10 C6          4.8782    0.5805   -3.5519 C.3       1 <0>         0.1589
     11 C7          4.7470    1.9976   -4.0475 C.ar      1 <0>        -0.1534
     12 C8          3.7141    2.3372   -4.9016 C.ar      1 <0>        -0.0450
     13 C9          3.5920    3.6355   -5.3576 C.ar      1 <0>        -0.1580
     14 C10         4.5065    4.5989   -4.9576 C.ar      1 <0>         0.1392
     15 C11         5.5418    4.2557   -4.1002 C.ar      1 <0>        -0.2183
     16 C12         5.6565    2.9572   -3.6429 C.ar      1 <0>        -0.0674
     17 O1          4.3888    5.8767   -5.4052 O.3       1 <0>        -0.3161
     18 C13         5.3661    6.8155   -4.9521 C.3       1 <0>         0.0547
     19 C14         5.0720    8.1899   -5.5566 C.3       1 <0>        -0.1536
     20 C15         4.7649    0.6769   -1.0188 C.3       1 <0>         0.1790
     21 C16         5.3784   -0.6009   -0.5070 C.2       1 <0>        -0.0553
     22 C17         6.6321   -1.0239   -0.7495 C.2       1 <0>        -0.1759
     23 C18         6.7837   -2.2604   -0.0809 C.2       1 <0>        -0.2147
     24 C19         5.6136   -2.5190    0.5302 C.2       1 <0>        -0.0232
     25 O2          4.7681   -1.5077    0.2734 O.3       1 <0>        -0.1744
     26 H2          1.0039    1.9031    0.0027 H         1 <0>         0.0481
     27 H3         -0.5459    1.8868   -0.8726 H         1 <0>         0.0610
     28 H4         -0.5289    1.8773    0.9072 H         1 <0>         0.0591
     29 H5          0.5293   -0.3651    0.8851 H         1 <0>         0.0659
     30 H6         -1.0205   -0.3814    0.0098 H         1 <0>         0.0874
     31 H7          1.1041   -2.4564   -0.4477 H         1 <0>         0.0517
     32 H8         -0.4163   -2.3257   -1.3639 H         1 <0>         0.0715
     33 H9          1.1405   -2.3748   -2.2254 H         1 <0>         0.0740
     34 H10         2.5531    0.0754   -0.3551 H         1 <0>         0.3952
     35 H11         5.9285    0.3564   -3.3659 H         1 <0>         0.0896
     36 H12         4.4881   -0.1051   -4.3042 H         1 <0>         0.1218
     37 H13         3.0024    1.5869   -5.2127 H         1 <0>         0.1581
     38 H14         2.7854    3.9001   -6.0253 H         1 <0>         0.1306
     39 H15         6.2550    5.0039   -3.7874 H         1 <0>         0.1258
     40 H16         6.4597    2.6905   -2.9719 H         1 <0>         0.1195
     41 H17         5.3297    6.8816   -3.8647 H         1 <0>         0.0607
     42 H18         6.3576    6.4864   -5.2631 H         1 <0>         0.0620
     43 H19         4.0805    8.5189   -5.2456 H         1 <0>         0.0667
     44 H20         5.8175    8.9060   -5.2110 H         1 <0>         0.0789
     45 H21         5.1084    8.1238   -6.6440 H         1 <0>         0.0673
     46 H22         5.5436    1.4294   -1.1432 H         1 <0>         0.1253
     47 H23         4.0237    1.0356   -0.3047 H         1 <0>         0.0921
     48 H24         7.3792   -0.5166   -1.3418 H         1 <0>         0.1505
     49 H25         7.6690   -2.8787   -0.0643 H         1 <0>         0.1522
     50 H26         5.3929   -3.3903    1.1291 H         1 <0>         0.2056
@<TRIPOS>BOND
     1    1    2 1
     2    1   26 1
     3    1   27 1
     4    1   28 1
     5    2    3 1
     6    2   29 1
     7    2   30 1
     8    3    4 1
     9    3    5 1
    10    3    6 1
    11    5   31 1
    12    5   32 1
    13    5   33 1
    14    6    7 1
    15    6   34 1
    16    7    8 2
    17    7    9 1
    18    9   10 1
    19    9   20 1
    20   10   11 1
    21   10   35 1
    22   10   36 1
    23   11   16 ar
    24   11   12 ar
    25   12   13 ar
    26   12   37 1
    27   13   14 ar
    28   13   38 1
    29   14   15 ar
    30   14   17 1
    31   15   16 ar
    32   15   39 1
    33   16   40 1
    34   17   18 1
    35   18   19 1
    36   18   41 1
    37   18   42 1
    38   19   43 1
    39   19   44 1
    40   19   45 1
    41   20   21 1
    42   20   46 1
    43   20   47 1
    44   21   25 1
    45   21   22 2
    46   22   23 1
    47   22   48 1
    48   23   24 2
    49   23   49 1
    50   24   25 1
    51   24   50 1
@<TRIPOS>MOLECULE
ZINC09275473
   60    63     0     0     0
SMALL
USER_CHARGES
ethyl 2-[(2S)-3-benzoyl-4-hydroxy-2-(4-isopropylphenyl)-5-oxo-2H-pyrrol-1-yl]-4-methyl-thiazole-5-carboxylate
@<TRIPOS>ATOM
      1 C1         -0.2956   -8.4687    0.4822 C.3       1 <0>        -0.1539
      2 C2          1.1210   -7.8940    0.4189 C.3       1 <0>         0.0614
      3 O1          1.0540   -6.4682    0.3522 O.3       1 <0>        -0.3494
      4 C3          2.2259   -5.8021    0.2907 C.2       1 <0>         0.5706
      5 O2          3.2758   -6.4168    0.2938 O.2       1 <0>        -0.5047
      6 C4          2.2339   -4.3424    0.2204 C.2       1 <0>        -0.3284
      7 C5          3.3069   -3.4631    0.1512 C.2       1 <0>         0.2152
      8 N1          3.0431   -2.1846    0.0910 N.2       1 <0>        -0.5507
      9 C6          1.7989   -1.7311    0.1067 C.2       1 <0>         0.3757
     10 S1          0.8658   -3.1925    0.2002 S.3       1 <0>         0.1363
     11 N2          1.3547   -0.4236    0.0556 N.am      1 <0>        -0.5039
     12 C7         -0.0462    0.0137    0.0708 C.3       1 <0>         0.2620
     13 H1         -0.5891   -0.4331   -0.7752 H         1 <0>         0.0865
     14 C8         -0.0172    1.5226   -0.0022 C.2       1 <0>        -0.4850
     15 C9          1.2865    1.8859   -0.0532 C.2       1 <0>         0.2731
     16 C10         2.1299    0.6736   -0.0169 C.2       1 <0>         0.5097
     17 O3          3.3445    0.6682   -0.0476 O.2       1 <0>        -0.4581
     18 O4          1.7437    3.1571   -0.1259 O.3       1 <0>        -0.6327
     19 C11        -1.1761    2.4195   -0.0206 C.2       1 <0>         0.5074
     20 O5         -1.3790    3.1705    0.9148 O.2       1 <0>        -0.4636
     21 C12        -2.0987    2.4116   -1.1761 C.ar      1 <0>        -0.1377
     22 C13        -1.9135    1.4973   -2.2153 C.ar      1 <0>        -0.0687
     23 C14        -2.7810    1.4920   -3.2876 C.ar      1 <0>        -0.1371
     24 C15        -3.8262    2.3975   -3.3406 C.ar      1 <0>        -0.1052
     25 C16        -4.0124    3.3097   -2.3167 C.ar      1 <0>        -0.1364
     26 C17        -3.1558    3.3222   -1.2358 C.ar      1 <0>        -0.0729
     27 C18        -0.7140   -0.4306    1.3466 C.ar      1 <0>        -0.0966
     28 C19        -0.0408   -0.3313    2.5499 C.ar      1 <0>        -0.0868
     29 C20        -0.6552   -0.7339    3.7209 C.ar      1 <0>        -0.1113
     30 C21        -1.9386   -1.2465    3.6872 C.ar      1 <0>        -0.0778
     31 C22        -2.6098   -1.3507    2.4832 C.ar      1 <0>        -0.1159
     32 C23        -1.9975   -0.9427    1.3130 C.ar      1 <0>        -0.1014
     33 C24        -2.6062   -1.6912    4.9630 C.3       1 <0>        -0.0542
     34 C25        -1.7804   -2.8055    5.6090 C.3       1 <0>        -0.1445
     35 C26        -2.7060   -0.5066    5.9261 C.3       1 <0>        -0.1456
     36 C27         4.7272   -3.9668    0.1392 C.3       1 <0>        -0.0882
     37 H2         -0.2440   -9.5663    0.5335 H         1 <0>         0.0792
     38 H3         -0.8532   -8.1695   -0.4176 H         1 <0>         0.0674
     39 H4         -0.8080   -8.0835    1.3761 H         1 <0>         0.0675
     40 H5          1.6786   -8.1932    1.3187 H         1 <0>         0.0682
     41 H6          1.6334   -8.2792   -0.4750 H         1 <0>         0.0683
     42 H7         -1.0956    0.7931   -2.1773 H         1 <0>         0.1300
     43 H8         -2.6416    0.7825   -4.0899 H         1 <0>         0.1225
     44 H9         -4.4999    2.3920   -4.1847 H         1 <0>         0.1193
     45 H10        -4.8301    4.0136   -2.3643 H         1 <0>         0.1216
     46 H11        -3.3020    4.0349   -0.4375 H         1 <0>         0.1292
     47 H12         0.9637    0.0647    2.5757 H         1 <0>         0.1131
     48 H13        -0.1310   -0.6522    4.6616 H         1 <0>         0.1177
     49 H14        -3.6125   -1.7511    2.4569 H         1 <0>         0.1198
     50 H15        -2.5218   -1.0245    0.3723 H         1 <0>         0.1223
     51 H16        -3.6130   -2.0633    4.7222 H         1 <0>         0.0756
     52 H17        -2.2676   -3.1301    6.5402 H         1 <0>         0.0550
     53 H18        -0.7713   -2.4303    5.8346 H         1 <0>         0.0566
     54 H19        -1.7086   -3.6572    4.9165 H         1 <0>         0.0562
     55 H20        -3.1933   -0.8312    6.8573 H         1 <0>         0.0548
     56 H21        -3.2996    0.2946    5.4616 H         1 <0>         0.0574
     57 H22        -1.6968   -0.1315    6.1518 H         1 <0>         0.0574
     58 H23         5.4185   -3.1131    0.0809 H         1 <0>         0.0805
     59 H24         4.8771   -4.6203   -0.7329 H         1 <0>         0.0866
     60 H25         4.9226   -4.5346    1.0608 H         1 <0>         0.0865
@<TRIPOS>BOND
     1    1    2 1
     2    1   37 1
     3    1   38 1
     4    1   39 1
     5    2    3 1
     6    2   40 1
     7    2   41 1
     8    3    4 1
     9    4    5 2
    10    4    6 1
    11    6   10 1
    12    6    7 2
    13    7    8 1
    14    7   36 1
    15    8    9 2
    16    9   10 1
    17    9   11 1
    18   11   16 am
    19   11   12 1
    20   12   13 1
    21   12   14 1
    22   12   27 1
    23   14   15 2
    24   14   19 1
    25   15   16 1
    26   15   18 1
    27   16   17 2
    28   19   20 2
    29   19   21 1
    30   21   26 ar
    31   21   22 ar
    32   22   23 ar
    33   22   42 1
    34   23   24 ar
    35   23   43 1
    36   24   25 ar
    37   24   44 1
    38   25   26 ar
    39   25   45 1
    40   26   46 1
    41   27   32 ar
    42   27   28 ar
    43   28   29 ar
    44   28   47 1
    45   29   30 ar
    46   29   48 1
    47   30   31 ar
    48   30   33 1
    49   31   32 ar
    50   31   49 1
    51   32   50 1
    52   33   34 1
    53   33   35 1
    54   33   51 1
    55   34   52 1
    56   34   53 1
    57   34   54 1
    58   35   55 1
    59   35   56 1
    60   35   57 1
    61   36   58 1
    62   36   59 1
    63   36   60 1
@<TRIPOS>MOLECULE
ZINC33529280
   60    63     0     0     0
SMALL
USER_CHARGES
(4E,5S)-5-(4-allyloxyphenyl)-4-[hydroxy(p-tolyl)methylene]-1-phenethyl-pyrrolidine-2,3-dione
@<TRIPOS>ATOM
      1 C1         -1.2356   15.9069   -1.7826 C.3       1 <0>        -0.1095
      2 C2         -0.5649   14.5611   -1.6815 C.ar      1 <0>        -0.0936
      3 C3          0.5763   14.4166   -0.9117 C.ar      1 <0>        -0.1360
      4 C4          1.1953   13.1885   -0.8139 C.ar      1 <0>        -0.0866
      5 C5          0.6675   12.0873   -1.4955 C.ar      1 <0>        -0.0769
      6 C6         -0.4826   12.2426   -2.2759 C.ar      1 <0>        -0.0483
      7 C7         -1.0937   13.4758   -2.3587 C.ar      1 <0>        -0.1312
      8 C8          1.3232   10.7714   -1.3967 C.2       1 <0>         0.3979
      9 C9          0.5835    9.6553   -1.0648 C.2       1 <0>        -0.4965
     10 C10         1.0578    8.2205   -1.0584 C.3       1 <0>         0.2698
     11 H1          1.8976    8.0675   -0.3646 H         1 <0>         0.0704
     12 N1         -0.0837    7.4027   -0.6383 N.am      1 <0>        -0.5994
     13 C11        -1.1379    8.2049   -0.4145 C.2       1 <0>         0.4758
     14 O1         -2.2355    7.8283   -0.0579 O.2       1 <0>        -0.5341
     15 C12        -0.7625    9.6233   -0.6645 C.2       1 <0>         0.3688
     16 O2         -1.4959   10.5879   -0.5465 O.3       1 <0>        -0.4967
     17 C13        -0.0779    5.9450   -0.4923 C.3       1 <0>         0.1390
     18 C14         0.3308    5.5771    0.9355 C.3       1 <0>        -0.1014
     19 C15         0.3368    4.0776    1.0858 C.ar      1 <0>        -0.0724
     20 C16         1.4881    3.3608    0.8184 C.ar      1 <0>        -0.1150
     21 C17         1.4937    1.9854    0.9567 C.ar      1 <0>        -0.1201
     22 C18         0.3479    1.3268    1.3619 C.ar      1 <0>        -0.1288
     23 C19        -0.8051    2.0431    1.6237 C.ar      1 <0>        -0.1200
     24 C20        -0.8092    3.4190    1.4905 C.ar      1 <0>        -0.1148
     25 C21         1.5004    7.8172   -2.4414 C.ar      1 <0>        -0.0969
     26 C22         0.5580    7.5093   -3.4052 C.ar      1 <0>        -0.0655
     27 C23         0.9610    7.1449   -4.6753 C.ar      1 <0>        -0.2130
     28 C24         2.3127    7.0765   -4.9800 C.ar      1 <0>         0.1140
     29 C25         3.2564    7.3804   -4.0095 C.ar      1 <0>        -0.1529
     30 C26         2.8481    7.7502   -2.7426 C.ar      1 <0>        -0.0461
     31 O3          2.7118    6.7119   -6.2268 O.3       1 <0>        -0.3158
     32 C27         1.6854    6.4133   -7.1751 C.3       1 <0>         0.0854
     33 C28         2.3129    6.0319   -8.4911 C.2       1 <0>        -0.1529
     34 C29         1.8687    4.9912   -9.1514 C.2       1 <0>        -0.1820
     35 O4          2.6479   10.6581   -1.6311 O.2       1 <0>        -0.6320
     36 H2         -0.6775   16.6407   -1.1825 H         1 <0>         0.0594
     37 H3         -2.2661   15.8323   -1.4052 H         1 <0>         0.0643
     38 H4         -1.2527   16.2300   -2.8339 H         1 <0>         0.0629
     39 H5          0.9827   15.2680   -0.3860 H         1 <0>         0.1141
     40 H6          2.0853   13.0771   -0.2123 H         1 <0>         0.1189
     41 H7         -0.8935   11.3978   -2.8086 H         1 <0>         0.1151
     42 H8         -1.9846   13.5963   -2.9571 H         1 <0>         0.1137
     43 H9         -1.0844    5.5519   -0.6985 H         1 <0>         0.0788
     44 H10         0.6390    5.5081   -1.2030 H         1 <0>         0.0796
     45 H11         1.3372    5.9703    1.1416 H         1 <0>         0.0786
     46 H12        -0.3861    6.0140    1.6462 H         1 <0>         0.0777
     47 H13         2.3833    3.8753    0.5018 H         1 <0>         0.1229
     48 H14         2.3932    1.4253    0.7478 H         1 <0>         0.1196
     49 H15         0.3522    0.2522    1.4696 H         1 <0>         0.1177
     50 H16        -1.7015    1.5281    1.9360 H         1 <0>         0.1193
     51 H17        -1.7088    3.9790    1.6990 H         1 <0>         0.1227
     52 H18        -0.4941    7.5578   -3.1660 H         1 <0>         0.1141
     53 H19         0.2245    6.9091   -5.4292 H         1 <0>         0.1183
     54 H20         4.3092    7.3282   -4.2443 H         1 <0>         0.1237
     55 H21         3.5823    7.9869   -1.9868 H         1 <0>         0.1298
     56 H22         1.0752    5.5768   -6.8037 H         1 <0>         0.0650
     57 H23         1.0475    7.2983   -7.3159 H         1 <0>         0.0709
     58 H24         3.1439    6.6273   -8.8973 H         1 <0>         0.1211
     59 H25         2.3267    4.7128  -10.1120 H         1 <0>         0.1081
     60 H26         1.0377    4.3958   -8.7452 H         1 <0>         0.1008
@<TRIPOS>BOND
     1    1    2 1
     2    1   36 1
     3    1   37 1
     4    1   38 1
     5    2    7 ar
     6    2    3 ar
     7    3    4 ar
     8    3   39 1
     9    4    5 ar
    10    4   40 1
    11    5    6 ar
    12    5    8 1
    13    6    7 ar
    14    6   41 1
    15    7   42 1
    16    8    9 1
    17    8   35 2
    18    9   15 2
    19    9   10 1
    20   10   11 1
    21   10   12 1
    22   10   25 1
    23   12   13 am
    24   12   17 1
    25   13   14 2
    26   13   15 1
    27   15   16 1
    28   17   18 1
    29   17   43 1
    30   17   44 1
    31   18   19 1
    32   18   45 1
    33   18   46 1
    34   19   24 ar
    35   19   20 ar
    36   20   21 ar
    37   20   47 1
    38   21   22 ar
    39   21   48 1
    40   22   23 ar
    41   22   49 1
    42   23   24 ar
    43   23   50 1
    44   24   51 1
    45   25   30 ar
    46   25   26 ar
    47   26   27 ar
    48   26   52 1
    49   27   28 ar
    50   27   53 1
    51   28   29 ar
    52   28   31 1
    53   29   30 ar
    54   29   54 1
    55   30   55 1
    56   31   32 1
    57   32   33 1
    58   32   56 1
    59   32   57 1
    60   33   34 2
    61   33   58 1
    62   34   59 1
    63   34   60 1
@<TRIPOS>MOLECULE
ZINC36058795
   61    64     0     0     0
SMALL
USER_CHARGES

@<TRIPOS>ATOM
      1 C1         -1.8990    0.2231   -1.3043 C.3       1 <0>        -0.1090
      2 C2         -1.5162   -1.1829   -0.9199 C.ar      1 <0>        -0.0855
      3 C3         -0.6992   -1.9283   -1.7496 C.ar      1 <0>        -0.1302
      4 C4         -0.3481   -3.2177   -1.3971 C.ar      1 <0>        -0.0861
      5 C5         -0.8136   -3.7621   -0.2145 C.ar      1 <0>        -0.0778
      6 C6         -1.6297   -3.0167    0.6154 C.ar      1 <0>        -0.0353
      7 C7         -1.9773   -1.7253    0.2648 C.ar      1 <0>        -0.1284
      8 C8         -2.1374   -3.6102    1.9042 C.3       1 <0>        -0.1240
      9 C9         -0.4317   -5.1684    0.1694 C.3       1 <0>         0.2526
     10 H1         -1.0340   -5.4527    1.0323 H         1 <0>         0.0824
     11 C10         1.0188   -5.1565    0.5977 C.2       1 <0>        -0.3901
     12 C11         1.8986   -5.9750   -0.0841 C.2       1 <0>         0.3025
     13 N1          1.4719   -6.7382   -1.0771 N.2       1 <0>        -0.5964
     14 C12         0.2254   -6.7954   -1.4988 C.2       1 <0>         0.3201
     15 N2         -0.7960   -6.0660   -0.9590 N.pl3     1 <0>        -0.5120
     16 C13        -2.0486   -6.2369   -1.5140 C.2       1 <0>         0.2284
     17 C14        -2.1658   -7.1069   -2.5413 C.2       1 <0>        -0.3013
     18 S1         -0.4936   -7.6886   -2.7244 S.3       1 <0>         0.1451
     19 C15        -3.2136   -5.4989   -1.0050 C.2       1 <0>        -0.4549
     20 C16        -4.4458   -5.7828   -1.4689 C.2       1 <0>         0.5011
     21 O1         -4.6287   -6.8295   -2.3102 O.3       1 <0>        -0.7008
     22 N3         -5.5257   -5.0052   -1.0862 N.pl3     1 <0>        -0.6473
     23 C17        -5.3655   -3.5682   -0.8133 C.3       1 <0>         0.1059
     24 C18        -6.4312   -2.8036   -1.6068 C.3       1 <0>         0.0475
     25 O2         -7.7170   -3.3632   -1.3286 O.3       1 <0>        -0.3890
     26 C19        -7.8601   -4.7283   -1.7284 C.3       1 <0>         0.0477
     27 C20        -6.8687   -5.5903   -0.9465 C.3       1 <0>         0.1004
     28 C21         3.3542   -5.9983    0.3055 C.3       1 <0>        -0.1155
     29 C22         1.4555   -4.3426    1.6500 C.2       1 <0>         0.5375
     30 O3          2.6332   -4.3317    1.9636 O.2       1 <0>        -0.5492
     31 O4          0.5712   -3.5691    2.3179 O.3       1 <0>        -0.3450
     32 C23         1.1014   -2.6809    3.3038 C.3       1 <0>         0.0945
     33 C24        -0.0313   -1.9906    4.0191 C.2       1 <0>        -0.1497
     34 C25        -0.0298   -1.9132    5.3268 C.2       1 <0>        -0.1803
     35 H2         -1.1611    0.9214   -0.9094 H         1 <0>         0.0641
     36 H3         -1.9330    0.3063   -2.3906 H         1 <0>         0.0617
     37 H4         -2.8797    0.4585   -0.8910 H         1 <0>         0.0629
     38 H5         -0.3356   -1.5030   -2.6734 H         1 <0>         0.1127
     39 H6          0.2895   -3.8002   -2.0455 H         1 <0>         0.1033
     40 H7         -2.6119   -1.1414    0.9151 H         1 <0>         0.1153
     41 H8         -1.4363   -3.3866    2.7082 H         1 <0>         0.0899
     42 H9         -3.1114   -3.1827    2.1421 H         1 <0>         0.0569
     43 H10        -2.2318   -4.6905    1.7943 H         1 <0>         0.0664
     44 H11        -3.0459   -7.3792   -3.1049 H         1 <0>         0.2324
     45 H12        -3.0815   -4.7291   -0.2592 H         1 <0>         0.1011
     46 H13        -5.4961   -3.3801    0.2524 H         1 <0>         0.0503
     47 H14        -4.3727   -3.2438   -1.1248 H         1 <0>         0.0862
     48 H15        -6.4199   -1.7537   -1.3138 H         1 <0>         0.0935
     49 H16        -6.2208   -2.8870   -2.6730 H         1 <0>         0.0499
     50 H17        -8.8768   -5.0632   -1.5228 H         1 <0>         0.0928
     51 H18        -7.6549   -4.8187   -2.7951 H         1 <0>         0.0515
     52 H19        -6.8708   -6.6043   -1.3463 H         1 <0>         0.0903
     53 H20        -7.1532   -5.6093    0.1055 H         1 <0>         0.0489
     54 H21         3.4993   -6.7000    1.1269 H         1 <0>         0.0797
     55 H22         3.9542   -6.3105   -0.5493 H         1 <0>         0.0641
     56 H23         3.6619   -5.0013    0.6206 H         1 <0>         0.1116
     57 H24         1.6933   -3.2475    4.0226 H         1 <0>         0.0668
     58 H25         1.7331   -1.9361    2.8198 H         1 <0>         0.0682
     59 H26        -0.8442   -1.5597    3.4535 H         1 <0>         0.1198
     60 H27        -0.8416   -1.4185    5.8393 H         1 <0>         0.1043
     61 H28         0.7831   -2.3441    5.8923 H         1 <0>         0.0975
@<TRIPOS>BOND
     1    1    2 1
     2    1   35 1
     3    1   36 1
     4    1   37 1
     5    2    7 ar
     6    2    3 ar
     7    3    4 ar
     8    3   38 1
     9    4    5 ar
    10    4   39 1
    11    5    6 ar
    12    5    9 1
    13    6    7 ar
    14    6    8 1
    15    7   40 1
    16    8   41 1
    17    8   42 1
    18    8   43 1
    19    9   10 1
    20    9   15 1
    21    9   11 1
    22   11   12 2
    23   11   29 1
    24   12   13 1
    25   12   28 1
    26   13   14 2
    27   14   18 1
    28   14   15 1
    29   15   16 1
    30   16   17 2
    31   16   19 1
    32   17   18 1
    33   17   44 1
    34   19   20 2
    35   19   45 1
    36   20   21 1
    37   20   22 1
    38   22   27 1
    39   22   23 1
    40   23   24 1
    41   23   46 1
    42   23   47 1
    43   24   25 1
    44   24   48 1
    45   24   49 1
    46   25   26 1
    47   26   27 1
    48   26   50 1
    49   26   51 1
    50   27   52 1
    51   27   53 1
    52   28   54 1
    53   28   55 1
    54   28   56 1
    55   29   30 2
    56   29   31 1
    57   31   32 1
    58   32   33 1
    59   32   57 1
    60   32   58 1
    61   33   34 2
    62   33   59 1
    63   34   60 1
    64   34   61 1
@<TRIPOS>MOLECULE
ZINC40000203
   58    61     0     0     0
SMALL
USER_CHARGES

@<TRIPOS>ATOM
      1 C1         -5.3488   -2.8566    7.1315 C.3       1 <0>        -0.1502
      2 C2         -4.6260   -3.6809    6.0642 C.3       1 <0>        -0.1222
      3 C3         -3.1143   -3.5754    6.2753 C.3       1 <0>         0.0560
      4 O1         -2.4393   -4.3453    5.2785 O.3       1 <0>        -0.3126
      5 C4         -1.0831   -4.3585    5.3239 C.ar      1 <0>         0.1451
      6 C5         -0.4156   -3.6470    6.3149 C.ar      1 <0>        -0.2199
      7 C6          0.9599   -3.6577    6.3645 C.ar      1 <0>        -0.0252
      8 C7          1.6861   -4.3859    5.4169 C.ar      1 <0>        -0.1680
      9 C8          1.0111   -5.1002    4.4227 C.ar      1 <0>        -0.0327
     10 C9         -0.3651   -5.0880    4.3831 C.ar      1 <0>        -0.1349
     11 C10        -1.0940   -5.8623    3.3152 C.3       1 <0>        -0.0992
     12 C11         3.1614   -4.3998    5.4660 C.2       1 <0>         0.5117
     13 O2          3.7901   -5.0819    4.6781 O.2       1 <0>        -0.4682
     14 C12         3.8690   -3.5924    6.4635 C.2       1 <0>        -0.4817
     15 C13         4.6084   -4.0544    7.5000 C.2       1 <0>         0.2713
     16 C14         5.1464   -2.9090    8.2608 C.2       1 <0>         0.5127
     17 O3          5.8496   -2.9964    9.2483 O.2       1 <0>        -0.4837
     18 N1          4.7435   -1.7544    7.6999 N.am      1 <0>        -0.5000
     19 C15         3.9201   -2.0838    6.5305 C.3       1 <0>         0.2700
     20 H1          2.9156   -1.6800    6.6565 H         1 <0>         0.0933
     21 C16         4.5487   -1.5304    5.2776 C.ar      1 <0>        -0.0991
     22 C17         5.9036   -1.2594    5.2455 C.ar      1 <0>        -0.0749
     23 C18         6.4804   -0.7518    4.0965 C.ar      1 <0>        -0.1264
     24 C19         5.7029   -0.5146    2.9780 C.ar      1 <0>        -0.0974
     25 C20         4.3482   -0.7853    3.0076 C.ar      1 <0>        -0.1519
     26 C21         3.7702   -1.2987    4.1565 C.ar      1 <0>         0.1132
     27 F1          2.4466   -1.5681    4.1851 F         1 <0>        -0.1326
     28 C22         5.0564   -0.4758    8.1458 C.2       1 <0>         0.3202
     29 N2          4.7011    0.7043    7.6627 N.2       1 <0>        -0.3105
     30 N3          5.0764    1.7846    8.1946 N.2       1 <0>        -0.2495
     31 C23         5.8502    1.8039    9.2707 C.2       1 <0>        -0.0258
     32 S1          6.0488    0.0452    9.5421 S.3       1 <0>         0.0863
     33 S2          6.4944    3.1699   10.1783 S.3       1 <0>         0.0294
     34 C24         5.8528    4.6218    9.3003 C.3       1 <0>        -0.1142
     35 C25         6.3432    5.8947    9.9933 C.3       1 <0>        -0.1378
     36 O4          4.8200   -5.3584    7.7923 O.3       1 <0>        -0.6315
     37 H2         -5.0429   -1.8133    7.0536 H         1 <0>         0.0576
     38 H3         -6.4257   -2.9317    6.9811 H         1 <0>         0.0627
     39 H4         -5.0925   -3.2375    8.1201 H         1 <0>         0.0577
     40 H5         -4.9318   -4.7242    6.1421 H         1 <0>         0.0723
     41 H6         -4.8823   -3.3000    5.0756 H         1 <0>         0.0723
     42 H7         -2.8085   -2.5321    6.1975 H         1 <0>         0.0624
     43 H8         -2.8581   -3.9564    7.2639 H         1 <0>         0.0623
     44 H9         -0.9772   -3.0849    7.0464 H         1 <0>         0.1273
     45 H10         1.4776   -3.1043    7.1340 H         1 <0>         0.1315
     46 H11         1.5682   -5.6638    3.6890 H         1 <0>         0.1360
     47 H12        -1.2412   -5.2266    2.4421 H         1 <0>         0.0642
     48 H13        -0.5055   -6.7355    3.0339 H         1 <0>         0.0639
     49 H14        -2.0627   -6.1846    3.6974 H         1 <0>         0.0664
     50 H15         6.5119   -1.4439    6.1186 H         1 <0>         0.1155
     51 H16         7.5392   -0.5400    4.0724 H         1 <0>         0.1241
     52 H17         6.1545   -0.1174    2.0810 H         1 <0>         0.1283
     53 H18         3.7410   -0.5996    2.1340 H         1 <0>         0.1328
     54 H19         6.2077    4.6094    8.2698 H         1 <0>         0.0956
     55 H20         4.7631    4.5998    9.3096 H         1 <0>         0.0954
     56 H21         5.9883    5.9071   11.0238 H         1 <0>         0.0667
     57 H22         7.4329    5.9167    9.9840 H         1 <0>         0.0668
     58 H23         5.9576    6.7672    9.4657 H         1 <0>         0.0791
@<TRIPOS>BOND
     1    1    2 1
     2    1   37 1
     3    1   38 1
     4    1   39 1
     5    2    3 1
     6    2   40 1
     7    2   41 1
     8    3    4 1
     9    3   42 1
    10    3   43 1
    11    4    5 1
    12    5   10 ar
    13    5    6 ar
    14    6    7 ar
    15    6   44 1
    16    7    8 ar
    17    7   45 1
    18    8    9 ar
    19    8   12 1
    20    9   10 ar
    21    9   46 1
    22   10   11 1
    23   11   47 1
    24   11   48 1
    25   11   49 1
    26   12   13 2
    27   12   14 1
    28   14   19 1
    29   14   15 2
    30   15   16 1
    31   15   36 1
    32   16   17 2
    33   16   18 am
    34   18   19 1
    35   18   28 1
    36   19   20 1
    37   19   21 1
    38   21   26 ar
    39   21   22 ar
    40   22   23 ar
    41   22   50 1
    42   23   24 ar
    43   23   51 1
    44   24   25 ar
    45   24   52 1
    46   25   26 ar
    47   25   53 1
    48   26   27 1
    49   28   32 1
    50   28   29 2
    51   29   30 1
    52   30   31 2
    53   31   32 1
    54   31   33 1
    55   33   34 1
    56   34   35 1
    57   34   54 1
    58   34   55 1
    59   35   56 1
    60   35   57 1
    61   35   58 1
@<TRIPOS>MOLECULE
ZINC40079495
   69    71     0     0     0
SMALL
USER_CHARGES

@<TRIPOS>ATOM
      1 C1         -0.1586    1.6213   -0.3182 C.3       1 <0>        -0.1500
      2 C2         -0.1115    0.0921   -0.3116 C.3       1 <0>        -0.1204
      3 C3         -1.5364   -0.4618   -0.2522 C.3       1 <0>        -0.1369
      4 C4         -1.4893   -1.9911   -0.2455 C.3       1 <0>         0.1379
      5 N1         -2.8537   -2.5215   -0.1886 N.am      1 <0>        -0.6109
      6 C5         -3.6134   -2.8221    1.0306 C.3       1 <0>         0.2694
      7 H1         -3.7441   -1.9168    1.6234 H         1 <0>         0.0635
      8 C6         -4.9562   -3.3418    0.5728 C.2       1 <0>        -0.4977
      9 C7         -4.9393   -3.3291   -0.7803 C.2       1 <0>         0.2587
     10 C8         -3.6343   -2.8137   -1.2448 C.2       1 <0>         0.5101
     11 O1         -3.3128   -2.6769   -2.4085 O.2       1 <0>        -0.5403
     12 O2         -5.9570   -3.7217   -1.5807 O.3       1 <0>        -0.6593
     13 C9         -6.0642   -3.7761    1.4296 C.2       1 <0>         0.5073
     14 O3         -6.4179   -4.9405    1.4233 O.2       1 <0>        -0.4787
     15 C10        -6.7505   -2.8009    2.2995 C.ar      1 <0>        -0.1722
     16 C11        -6.4242   -1.4433    2.2248 C.ar      1 <0>        -0.0227
     17 C12        -7.0666   -0.5372    3.0379 C.ar      1 <0>        -0.2280
     18 C13        -8.0389   -0.9703    3.9327 C.ar      1 <0>         0.1418
     19 C14        -8.3664   -2.3195    4.0102 C.ar      1 <0>        -0.1693
     20 C15        -7.7329   -3.2314    3.1966 C.ar      1 <0>        -0.0351
     21 O4         -8.6695   -0.0739    4.7328 O.3       1 <0>        -0.3114
     22 C16        -8.1924    1.2727    4.7004 C.3       1 <0>         0.0719
     23 C17        -9.0101    2.0793    3.6897 C.3       1 <0>        -0.1760
     24 C18        -8.3371    1.8985    6.0890 C.3       1 <0>        -0.1500
     25 C19        -2.8985   -3.8726    1.8407 C.ar      1 <0>        -0.1236
     26 C20        -2.3769   -4.9899    1.2147 C.ar      1 <0>        -0.0412
     27 C21        -1.7212   -5.9546    1.9541 C.ar      1 <0>        -0.1948
     28 C22        -1.5859   -5.8016    3.3281 C.ar      1 <0>         0.2073
     29 C23        -2.1111   -4.6780    3.9537 C.ar      1 <0>        -0.1976
     30 C24        -2.7607   -3.7144    3.2075 C.ar      1 <0>        -0.0693
     31 N2         -0.9237   -6.7756    4.0790 N.pl3     1 <0>        -0.6325
     32 C25        -0.7820   -6.6125    5.5280 C.3       1 <0>         0.1236
     33 C26        -1.9810   -7.2502    6.2327 C.3       1 <0>        -0.1733
     34 C27        -0.3709   -7.9601    3.4176 C.3       1 <0>         0.1210
     35 C28         1.0700   -7.6781    2.9872 C.3       1 <0>        -0.1709
     36 H2          0.8566    2.0159   -0.3606 H         1 <0>         0.0505
     37 H3         -0.7181    1.9638   -1.1887 H         1 <0>         0.0533
     38 H4         -0.6478    1.9737    0.5898 H         1 <0>         0.0524
     39 H5          0.3778   -0.2603   -1.2197 H         1 <0>         0.0614
     40 H6          0.4481   -0.2504    0.5589 H         1 <0>         0.0607
     41 H7         -2.0256   -0.1095    0.6559 H         1 <0>         0.0636
     42 H8         -2.0960   -0.1193   -1.1226 H         1 <0>         0.0657
     43 H9         -1.0001   -2.3435   -1.1536 H         1 <0>         0.0738
     44 H10        -0.9298   -2.3336    0.6249 H         1 <0>         0.0737
     45 H11        -5.6689   -1.1062    1.5303 H         1 <0>         0.1359
     46 H12        -6.8149    0.5115    2.9811 H         1 <0>         0.1284
     47 H13        -9.1219   -2.6518    4.7068 H         1 <0>         0.1281
     48 H14        -7.9913   -4.2785    3.2541 H         1 <0>         0.1350
     49 H15        -7.1428    1.2793    4.4065 H         1 <0>         0.0787
     50 H16       -10.0597    2.0727    3.9836 H         1 <0>         0.0653
     51 H17        -8.6462    3.1065    3.6650 H         1 <0>         0.0699
     52 H18        -8.9070    1.6334    2.7004 H         1 <0>         0.0645
     53 H19        -7.7545    1.3239    6.8091 H         1 <0>         0.0634
     54 H20        -7.9732    2.9257    6.0643 H         1 <0>         0.0739
     55 H21        -9.3867    1.8919    6.3830 H         1 <0>         0.0649
     56 H22        -2.4827   -5.1085    0.1465 H         1 <0>         0.1141
     57 H23        -1.3143   -6.8272    1.4647 H         1 <0>         0.1153
     58 H24        -2.0080   -4.5562    5.0219 H         1 <0>         0.1151
     59 H25        -3.1654   -2.8385    3.6927 H         1 <0>         0.1152
     60 H26         0.1354   -7.0985    5.8603 H         1 <0>         0.0665
     61 H27        -0.7396   -5.5510    5.7718 H         1 <0>         0.0730
     62 H28        -1.8756   -7.1289    7.3108 H         1 <0>         0.0592
     63 H29        -2.8984   -6.7642    5.9004 H         1 <0>         0.0610
     64 H30        -2.0234   -8.3117    5.9889 H         1 <0>         0.0534
     65 H31        -0.3852   -8.8024    4.1094 H         1 <0>         0.0673
     66 H32        -0.9718   -8.2001    2.5405 H         1 <0>         0.0749
     67 H33         1.0842   -6.8358    2.2954 H         1 <0>         0.0593
     68 H34         1.6709   -7.4380    3.8643 H         1 <0>         0.0523
     69 H35         1.4813   -8.5594    2.4951 H         1 <0>         0.0598
@<TRIPOS>BOND
     1    1    2 1
     2    1   36 1
     3    1   37 1
     4    1   38 1
     5    2    3 1
     6    2   39 1
     7    2   40 1
     8    3    4 1
     9    3   41 1
    10    3   42 1
    11    4    5 1
    12    4   43 1
    13    4   44 1
    14    5   10 am
    15    5    6 1
    16    6    7 1
    17    6    8 1
    18    6   25 1
    19    8    9 2
    20    8   13 1
    21    9   10 1
    22    9   12 1
    23   10   11 2
    24   13   14 2
    25   13   15 1
    26   15   20 ar
    27   15   16 ar
    28   16   17 ar
    29   16   45 1
    30   17   18 ar
    31   17   46 1
    32   18   19 ar
    33   18   21 1
    34   19   20 ar
    35   19   47 1
    36   20   48 1
    37   21   22 1
    38   22   23 1
    39   22   24 1
    40   22   49 1
    41   23   50 1
    42   23   51 1
    43   23   52 1
    44   24   53 1
    45   24   54 1
    46   24   55 1
    47   25   30 ar
    48   25   26 ar
    49   26   27 ar
    50   26   56 1
    51   27   28 ar
    52   27   57 1
    53   28   29 ar
    54   28   31 1
    55   29   30 ar
    56   29   58 1
    57   30   59 1
    58   31   32 1
    59   31   34 1
    60   32   33 1
    61   32   60 1
    62   32   61 1
    63   33   62 1
    64   33   63 1
    65   33   64 1
    66   34   35 1
    67   34   65 1
    68   34   66 1
    69   35   67 1
    70   35   68 1
    71   35   69 1
@<TRIPOS>MOLECULE
ZINC17058851
   60    63     0     0     0
SMALL
USER_CHARGES

@<TRIPOS>ATOM
      1 C1         -2.0288    1.5296   -2.3115 C.3       1 <0>        -0.1528
      2 C2         -1.8602    0.0118   -2.4036 C.3       1 <0>        -0.1168
      3 C3         -1.2916   -0.5191   -1.0861 C.3       1 <0>        -0.0482
      4 H1         -1.9294   -0.2019   -0.2611 H         1 <0>         0.0755
      5 C4          0.1204    0.0333   -0.8807 C.3       1 <0>        -0.1454
      6 C5         -1.2404   -2.0245   -1.1314 C.ar      1 <0>        -0.0824
      7 C6         -0.4831   -2.6604   -2.0980 C.ar      1 <0>        -0.1071
      8 C7         -0.4342   -4.0400   -2.1421 C.ar      1 <0>        -0.0975
      9 C8         -1.1464   -4.7885   -1.2146 C.ar      1 <0>         0.1589
     10 C9         -1.9059   -4.1471   -0.2453 C.ar      1 <0>        -0.0979
     11 C10        -1.9463   -2.7672   -0.2028 C.ar      1 <0>        -0.1100
     12 N1         -1.0992   -6.1883   -1.2570 N.am      1 <0>        -0.5333
     13 C11        -2.0207   -6.8613   -1.9785 C.2       1 <0>         0.5642
     14 O1         -2.8910   -6.2717   -2.5927 O.2       1 <0>        -0.5201
     15 C12        -1.9390   -8.3303   -1.9992 C.2       1 <0>        -0.2637
     16 C13        -2.8484   -9.0990   -2.7176 C.2       1 <0>         0.0642
     17 C14        -2.8214  -10.4992   -2.6129 C.2       1 <0>         0.0214
     18 C15        -2.6270  -11.4001   -3.6544 C.2       1 <0>        -0.1515
     19 C16        -2.6757  -12.6773   -3.0996 C.2       1 <0>        -0.2058
     20 C17        -2.8929  -12.5467   -1.7648 C.2       1 <0>         0.0118
     21 N2         -2.9769  -11.2362   -1.4564 N.pl3     1 <0>        -0.3893
     22 C18        -3.2004  -10.6865   -0.1170 C.3       1 <0>         0.1072
     23 C19        -4.6645  -10.2650    0.0236 C.3       1 <0>         0.0461
     24 O2         -4.8783   -9.7124    1.3240 O.3       1 <0>        -0.2956
     25 C20        -6.1357   -9.2855    1.6139 C.ar      1 <0>         0.1441
     26 C21        -7.1441   -9.4014    0.6685 C.ar      1 <0>        -0.1977
     27 C22        -8.4215   -8.9672    0.9656 C.ar      1 <0>        -0.0746
     28 C23        -8.6959   -8.4168    2.2041 C.ar      1 <0>        -0.1486
     29 C24        -7.6932   -8.2994    3.1486 C.ar      1 <0>        -0.0735
     30 C25        -6.4145   -8.7380    2.8587 C.ar      1 <0>        -0.0698
     31 Cl1        -5.1571   -8.5971    4.0474 Cl        1 <0>        -0.0522
     32 C26        -0.8474   -8.9510   -1.2229 C.2       1 <0>         0.5314
     33 N3         -0.0042   -8.1485   -0.5524 N.2       1 <0>        -0.6663
     34 C27        -0.1224   -6.8447   -0.5749 C.2       1 <0>         0.6360
     35 O3          0.7698   -6.1128    0.1208 O.3       1 <0>        -0.6426
     36 O4         -0.7146  -10.1631   -1.1909 O.2       1 <0>        -0.5234
     37 H2         -2.4340    1.9078   -3.2501 H         1 <0>         0.0515
     38 H3         -2.7125    1.7706   -1.4974 H         1 <0>         0.0524
     39 H4         -1.0602    1.9919   -2.1214 H         1 <0>         0.0561
     40 H5         -2.8289   -0.4505   -2.5937 H         1 <0>         0.0632
     41 H6         -1.1766   -0.2292   -3.2177 H         1 <0>         0.0636
     42 H7          0.0833    1.1222   -0.8480 H         1 <0>         0.0568
     43 H8          0.5255   -0.3449    0.0579 H         1 <0>         0.0569
     44 H9          0.7582   -0.2839   -1.7058 H         1 <0>         0.0566
     45 H10         0.0704   -2.0776   -2.8194 H         1 <0>         0.1218
     46 H11         0.1572   -4.5361   -2.8974 H         1 <0>         0.1191
     47 H12        -2.4612   -4.7267    0.4773 H         1 <0>         0.1185
     48 H13        -2.5334   -2.2677    0.5537 H         1 <0>         0.1219
     49 H14        -3.5754   -8.6192   -3.3560 H         1 <0>         0.1441
     50 H15        -2.4685  -11.1562   -4.6945 H         1 <0>         0.1370
     51 H16        -2.5612  -13.6075   -3.6364 H         1 <0>         0.1347
     52 H17        -2.9802  -13.3621   -1.0620 H         1 <0>         0.1590
     53 H18        -2.9673  -11.4449    0.6305 H         1 <0>         0.1045
     54 H19        -2.5568   -9.8195    0.0320 H         1 <0>         0.1062
     55 H20        -4.9013   -9.5165   -0.7326 H         1 <0>         0.0698
     56 H21        -5.3075  -11.1346   -0.1119 H         1 <0>         0.0718
     57 H22        -6.9306   -9.8304   -0.2993 H         1 <0>         0.1362
     58 H23        -9.2067   -9.0573    0.2296 H         1 <0>         0.1313
     59 H24        -9.6952   -8.0778    2.4339 H         1 <0>         0.1328
     60 H25        -7.9098   -7.8686    4.1150 H         1 <0>         0.1393
@<TRIPOS>BOND
     1    1    2 1
     2    1   37 1
     3    1   38 1
     4    1   39 1
     5    2    3 1
     6    2   40 1
     7    2   41 1
     8    3    4 1
     9    3    5 1
    10    3    6 1
    11    5   42 1
    12    5   43 1
    13    5   44 1
    14    6   11 ar
    15    6    7 ar
    16    7    8 ar
    17    7   45 1
    18    8    9 ar
    19    8   46 1
    20    9   10 ar
    21    9   12 1
    22   10   11 ar
    23   10   47 1
    24   11   48 1
    25   12   34 1
    26   12   13 am
    27   13   14 2
    28   13   15 1
    29   15   16 2
    30   15   32 1
    31   16   17 1
    32   16   49 1
    33   17   21 1
    34   17   18 2
    35   18   19 1
    36   18   50 1
    37   19   20 2
    38   19   51 1
    39   20   21 1
    40   20   52 1
    41   21   22 1
    42   22   23 1
    43   22   53 1
    44   22   54 1
    45   23   24 1
    46   23   55 1
    47   23   56 1
    48   24   25 1
    49   25   30 ar
    50   25   26 ar
    51   26   27 ar
    52   26   57 1
    53   27   28 ar
    54   27   58 1
    55   28   29 ar
    56   28   59 1
    57   29   30 ar
    58   29   60 1
    59   30   31 1
    60   32   33 1
    61   32   36 2
    62   33   34 2
    63   34   35 1
@<TRIPOS>MOLECULE
ZINC20527046
   39    40     0     0     0
SMALL
USER_CHARGES
(E)-3-[2-(cyclohexyl-methyl-amino)phenyl]prop-2-enoic acid
@<TRIPOS>ATOM
      1 C1          2.5512    0.3340   -1.2512 C.3       1 <0>         0.0263
      2 N1          2.3951    1.1103   -0.0139 N.pl3     1 <0>        -0.5019
      3 C2          1.1810    1.7855    0.0004 C.ar      1 <0>         0.0981
      4 C3         -0.0126    1.0758    0.0080 C.ar      1 <0>        -0.1503
      5 C4         -1.2177    1.7487    0.0173 C.ar      1 <0>        -0.1249
      6 C5         -1.2490    3.1347    0.0299 C.ar      1 <0>        -0.1211
      7 C6         -0.0771    3.8577    0.0226 C.ar      1 <0>        -0.1150
      8 C7          1.1538    3.1914    0.0077 C.ar      1 <0>        -0.0145
      9 C8          2.4076    3.9549   -0.0006 C.2       1 <0>        -0.0976
     10 C9          2.3760    5.3064    0.0065 C.2       1 <0>        -0.1552
     11 C10         3.5860    6.0434   -0.0016 C.2       1 <0>         0.4712
     12 O1          4.6535    5.4599   -0.0149 O.co2     1 <0>        -0.6363
     13 O2          3.5545    7.3924    0.0055 O.co2     1 <0>        -0.7701
     14 C11         2.5328    0.2496    1.1685 C.3       1 <0>         0.0967
     15 C12         2.4629    1.1066    2.4341 C.3       1 <0>        -0.1149
     16 C13         2.6063    0.2101    3.6656 C.3       1 <0>        -0.1153
     17 C14         3.9525   -0.5152    3.6145 C.3       1 <0>        -0.1220
     18 C15         4.0223   -1.3722    2.3490 C.3       1 <0>        -0.1153
     19 C16         3.8790   -0.4757    1.1174 C.3       1 <0>        -0.1175
     20 H1          3.5187   -0.1893   -1.2361 H         1 <0>         0.0767
     21 H2          2.5145    1.0121   -2.1166 H         1 <0>         0.0711
     22 H3          1.7373   -0.4021   -1.3273 H         1 <0>         0.0246
     23 H4          0.0021   -0.0041    0.0020 H         1 <0>         0.1133
     24 H5         -2.1428    1.1915    0.0190 H         1 <0>         0.1149
     25 H6         -2.1979    3.6502    0.0417 H         1 <0>         0.1193
     26 H7         -0.1076    4.9373    0.0280 H         1 <0>         0.1302
     27 H8          3.3728    3.4274   -0.0126 H         1 <0>         0.1416
     28 H9          1.4108    5.8339    0.0186 H         1 <0>         0.1034
     29 H10         1.7038   -0.4730    1.1451 H         1 <0>         0.0386
     30 H11         3.2774    1.8458    2.4218 H         1 <0>         0.0779
     31 H12         1.4951    1.6281    2.4708 H         1 <0>         0.0624
     32 H13         2.5561    0.8262    4.5755 H         1 <0>         0.0634
     33 H14         1.7918   -0.5291    3.6779 H         1 <0>         0.0564
     34 H15         4.7670    0.2240    3.6022 H         1 <0>         0.0662
     35 H16         4.0556   -1.1597    4.5000 H         1 <0>         0.0584
     36 H17         4.9901   -1.8937    2.3123 H         1 <0>         0.0627
     37 H18         3.2077   -2.1113    2.3613 H         1 <0>         0.0573
     38 H19         3.9292   -1.0918    0.2075 H         1 <0>         0.0633
     39 H20         4.6935    0.2635    1.1051 H         1 <0>         0.0778
@<TRIPOS>BOND
     1    1    2 1
     2    1   20 1
     3    1   21 1
     4    1   22 1
     5    2    3 1
     6    2   14 1
     7    3    8 ar
     8    3    4 ar
     9    4    5 ar
    10    4   23 1
    11    5    6 ar
    12    5   24 1
    13    6    7 ar
    14    6   25 1
    15    7    8 ar
    16    7   26 1
    17    8    9 1
    18    9   10 2
    19    9   27 1
    20   10   11 1
    21   10   28 1
    22   11   12 2
    23   11   13 1
    24   14   19 1
    25   14   15 1
    26   14   29 1
    27   15   16 1
    28   15   30 1
    29   15   31 1
    30   16   17 1
    31   16   32 1
    32   16   33 1
    33   17   18 1
    34   17   34 1
    35   17   35 1
    36   18   19 1
    37   18   36 1
    38   18   37 1
    39   19   38 1
    40   19   39 1
@<TRIPOS>MOLECULE
ZINC41921082
   41    43     0     0     0
SMALL
USER_CHARGES

@<TRIPOS>ATOM
      1 C1          0.6472    1.4955    1.2054 C.ar      1 <0>        -0.1280
      2 C2          1.8004    2.1641    0.8383 C.ar      1 <0>        -0.1328
      3 C3          2.9198    1.4474    0.4698 C.ar      1 <0>        -0.0951
      4 C4          2.8990    0.0584    0.4658 C.ar      1 <0>        -0.0560
      5 C5          1.7524   -0.6073    0.8361 C.ar      1 <0>        -0.0728
      6 C6          0.6250    0.1164    1.2034 C.ar      1 <0>        -0.1327
      7 C7          1.6631   -2.1106    0.8706 C.3       1 <0>        -0.0763
      8 C8          2.7906   -2.7348    0.0510 C.3       1 <0>        -0.1163
      9 C9          4.1183   -2.1167    0.5048 C.3       1 <0>        -0.0905
     10 C10         4.1539   -0.6607    0.0449 C.3       1 <0>         0.0817
     11 C11         5.3484    0.0247    0.6570 C.2       1 <0>         0.4852
     12 O1          5.4471    0.1105    1.8691 O.co2     1 <0>        -0.6864
     13 O2          6.2160    0.4933   -0.0601 O.co2     1 <0>        -0.6766
     14 O3          4.2660   -0.6188   -1.3791 O.3       1 <0>        -0.3592
     15 C12         4.3471    0.7026   -1.9171 C.3       1 <0>         0.0982
     16 C13         3.0017    1.0839   -2.5379 C.3       1 <0>        -0.1408
     17 C14         3.0885    2.4986   -3.1140 C.3       1 <0>        -0.1131
     18 C15         4.1774    2.5461   -4.1877 C.3       1 <0>        -0.1178
     19 C16         5.5228    2.1648   -3.5669 C.3       1 <0>        -0.1144
     20 C17         5.4360    0.7501   -2.9908 C.3       1 <0>        -0.1109
     21 H1         -0.2318    2.0512    1.4969 H         1 <0>         0.1137
     22 H2          1.8246    3.2439    0.8397 H         1 <0>         0.1148
     23 H3          3.8198    1.9703    0.1817 H         1 <0>         0.1215
     24 H4         -0.2764   -0.4051    1.4894 H         1 <0>         0.1132
     25 H5          1.7381   -2.4514    1.9032 H         1 <0>         0.0717
     26 H6          0.7036   -2.4231    0.4585 H         1 <0>         0.0669
     27 H7          2.8117   -3.8120    0.2165 H         1 <0>         0.0603
     28 H8          2.6324   -2.5286   -1.0075 H         1 <0>         0.0696
     29 H9          4.1911   -2.1603    1.5914 H         1 <0>         0.0786
     30 H10         4.9491   -2.6631    0.0584 H         1 <0>         0.0664
     31 H11         4.5916    1.4050   -1.1203 H         1 <0>         0.0828
     32 H12         2.7571    0.3815   -3.3348 H         1 <0>         0.0562
     33 H13         2.2259    1.0500   -1.7730 H         1 <0>         0.0634
     34 H14         2.1300    2.7702   -3.5563 H         1 <0>         0.0553
     35 H15         3.3330    3.2010   -2.3172 H         1 <0>         0.0590
     36 H16         3.9328    1.8437   -4.9846 H         1 <0>         0.0574
     37 H17         4.2392    3.5540   -4.5982 H         1 <0>         0.0545
     38 H18         6.2985    2.1987   -4.3319 H         1 <0>         0.0572
     39 H19         5.7673    2.8672   -2.7701 H         1 <0>         0.0620
     40 H20         6.3945    0.4784   -2.5485 H         1 <0>         0.0798
     41 H21         5.1914    0.0477   -3.7877 H         1 <0>         0.0500
@<TRIPOS>BOND
     1    1    6 ar
     2    1    2 ar
     3    1   21 1
     4    2    3 ar
     5    2   22 1
     6    3    4 ar
     7    3   23 1
     8    4   10 1
     9    4    5 ar
    10    5    6 ar
    11    5    7 1
    12    6   24 1
    13    7    8 1
    14    7   25 1
    15    7   26 1
    16    8    9 1
    17    8   27 1
    18    8   28 1
    19    9   10 1
    20    9   29 1
    21    9   30 1
    22   10   11 1
    23   10   14 1
    24   11   12 2
    25   11   13 1
    26   14   15 1
    27   15   20 1
    28   15   16 1
    29   15   31 1
    30   16   17 1
    31   16   32 1
    32   16   33 1
    33   17   18 1
    34   17   34 1
    35   17   35 1
    36   18   19 1
    37   18   36 1
    38   18   37 1
    39   19   20 1
    40   19   38 1
    41   19   39 1
    42   20   40 1
    43   20   41 1
@<TRIPOS>MOLECULE
ZINC44214649
   33    34     0     0     0
SMALL
USER_CHARGES

@<TRIPOS>ATOM
      1 C1         -0.0184    1.5028    0.0103 C.3       1 <0>        -0.2012
      2 C2          0.0021   -0.0041    0.0020 C.2       1 <0>         0.3958
      3 O1          0.0203   -0.6160    1.0489 O.2       1 <0>        -0.4639
      4 C3         -0.0001   -0.7324   -1.2754 C.ar      1 <0>        -0.1880
      5 C4         -0.0153   -0.0268   -2.4844 C.ar      1 <0>        -0.0667
      6 C5         -0.0169   -0.7077   -3.6744 C.ar      1 <0>        -0.1334
      7 C6         -0.0037   -2.1039   -3.6810 C.ar      1 <0>         0.0105
      8 C7          0.0114   -2.8094   -2.4762 C.ar      1 <0>        -0.1322
      9 C8          0.0189   -2.1321   -1.2841 C.ar      1 <0>        -0.0538
     10 C9         -0.0064   -2.8375   -4.9678 C.ar      1 <0>        -0.0869
     11 C10        -0.0163   -2.1318   -6.1726 C.ar      1 <0>        -0.0969
     12 C11        -0.0192   -2.8089   -7.3646 C.ar      1 <0>        -0.1191
     13 C12        -0.0119   -4.2091   -7.3734 C.ar      1 <0>        -0.0170
     14 C13        -0.0015   -4.9148   -6.1640 C.ar      1 <0>        -0.1233
     15 C14         0.0067   -4.2338   -4.9743 C.ar      1 <0>        -0.0947
     16 C15        -0.0155   -4.9370   -8.6502 C.2       1 <0>        -0.1270
     17 C16        -0.0084   -6.2891   -8.6576 C.2       1 <0>        -0.1530
     18 C17        -0.0118   -6.9904   -9.8875 C.2       1 <0>         0.4984
     19 O2         -0.0213   -6.3721  -10.9450 O.co2     1 <0>        -0.6928
     20 O3         -0.0054   -8.2153   -9.8942 O.co2     1 <0>        -0.6964
     21 H1          1.0042    1.8801    0.0026 H         1 <0>         0.0972
     22 H2         -0.5455    1.8639   -0.8728 H         1 <0>         0.0866
     23 H3         -0.5286    1.8543    0.9071 H         1 <0>         0.0866
     24 H4         -0.0262    1.0531   -2.4797 H         1 <0>         0.1332
     25 H5         -0.0286   -0.1637   -4.6073 H         1 <0>         0.1327
     26 H6          0.0216   -3.8893   -2.4833 H         1 <0>         0.1327
     27 H7          0.0351   -2.6781   -0.3525 H         1 <0>         0.1330
     28 H8         -0.0220   -1.0519   -6.1654 H         1 <0>         0.1240
     29 H9         -0.0276   -2.2627   -8.2963 H         1 <0>         0.1283
     30 H10         0.0042   -5.9947   -6.1686 H         1 <0>         0.1308
     31 H11         0.0188   -4.7776   -4.0413 H         1 <0>         0.1242
     32 H12        -0.0238   -4.3920   -9.5826 H         1 <0>         0.1306
     33 H13         0.0000   -6.8342   -7.7253 H         1 <0>         0.1017
@<TRIPOS>BOND
     1    1    2 1
     2    1   21 1
     3    1   22 1
     4    1   23 1
     5    2    3 2
     6    2    4 1
     7    4    9 ar
     8    4    5 ar
     9    5    6 ar
    10    5   24 1
    11    6    7 ar
    12    6   25 1
    13    7    8 ar
    14    7   10 1
    15    8    9 ar
    16    8   26 1
    17    9   27 1
    18   10   15 ar
    19   10   11 ar
    20   11   12 ar
    21   11   28 1
    22   12   13 ar
    23   12   29 1
    24   13   14 ar
    25   13   16 1
    26   14   15 ar
    27   14   30 1
    28   15   31 1
    29   16   17 2
    30   16   32 1
    31   17   18 1
    32   17   33 1
    33   18   19 2
    34   18   20 1
@<TRIPOS>MOLECULE
ZINC54933573
   34    35     0     0     0
SMALL
USER_CHARGES

@<TRIPOS>ATOM
      1 C1         -0.2509    1.5417    0.0450 C.3       1 <0>        -0.1478
      2 C2         -0.2520    0.0118    0.0288 C.3       1 <0>        -0.0910
      3 H1          0.0830   -0.3415   -0.9465 H         1 <0>         0.0642
      4 C3         -1.6685   -0.5002    0.2977 C.3       1 <0>        -0.1108
      5 C4         -2.1386   -0.0043    1.6667 C.3       1 <0>        -0.1183
      6 C5         -1.1933   -0.5265    2.7505 C.3       1 <0>        -0.1452
      7 C6          0.2232   -0.0145    2.4815 C.3       1 <0>         0.0427
      8 C7          0.6934   -0.5104    1.1126 C.3       1 <0>        -0.0812
      9 C8          1.1543   -0.5288    3.5490 C.2       1 <0>         0.4788
     10 O1          1.2996   -1.7293    3.7045 O.co2     1 <0>        -0.6803
     11 O2          1.7624    0.2556    4.2571 O.co2     1 <0>        -0.6690
     12 O3          0.2242    1.4144    2.4966 O.3       1 <0>        -0.2744
     13 C9         -0.1874    2.0195    3.6417 C.ar      1 <0>         0.2201
     14 C10        -0.4598    1.2592    4.7694 C.ar      1 <0>        -0.2025
     15 C11        -0.8784    1.8767    5.9349 C.ar      1 <0>         0.1485
     16 C12        -1.0257    3.2528    5.9755 C.ar      1 <0>        -0.2433
     17 C13        -0.7541    4.0130    4.8506 C.ar      1 <0>         0.1492
     18 C14        -0.3299    3.3985    3.6855 C.ar      1 <0>        -0.2164
     19 F1         -0.8984    5.3556    4.8920 F         1 <0>        -0.1376
     20 F2         -1.1438    1.1365    7.0334 F         1 <0>        -0.1361
     21 H2          0.7765    1.9040    0.0797 H         1 <0>         0.0528
     22 H3         -0.7376    1.9149   -0.8561 H         1 <0>         0.0376
     23 H4         -0.7910    1.8961    0.9229 H         1 <0>         0.0790
     24 H5         -2.3420   -0.1282   -0.4744 H         1 <0>         0.0566
     25 H6         -1.6692   -1.5901    0.2862 H         1 <0>         0.0596
     26 H7         -2.1379    1.0856    1.6782 H         1 <0>         0.0661
     27 H8         -3.1478   -0.3690    1.8583 H         1 <0>         0.0571
     28 H9         -1.5282   -0.1732    3.7257 H         1 <0>         0.0732
     29 H10        -1.1940   -1.6164    2.7389 H         1 <0>         0.0819
     30 H11         0.6926   -1.6003    1.1010 H         1 <0>         0.0842
     31 H12         1.7025   -0.1457    0.9210 H         1 <0>         0.0649
     32 H13        -0.3457    0.1857    4.7377 H         1 <0>         0.1592
     33 H14        -1.3531    3.7337    6.8855 H         1 <0>         0.1381
     34 H15        -0.1141    3.9921    2.8094 H         1 <0>         0.1401
@<TRIPOS>BOND
     1    1    2 1
     2    1   21 1
     3    1   22 1
     4    1   23 1
     5    2    3 1
     6    2    8 1
     7    2    4 1
     8    4    5 1
     9    4   24 1
    10    4   25 1
    11    5    6 1
    12    5   26 1
    13    5   27 1
    14    6    7 1
    15    6   28 1
    16    6   29 1
    17    7    8 1
    18    7    9 1
    19    7   12 1
    20    8   30 1
    21    8   31 1
    22    9   10 2
    23    9   11 1
    24   12   13 1
    25   13   18 ar
    26   13   14 ar
    27   14   15 ar
    28   14   32 1
    29   15   16 ar
    30   15   20 1
    31   16   17 ar
    32   16   33 1
    33   17   18 ar
    34   17   19 1
    35   18   34 1
@<TRIPOS>MOLECULE
ZINC62954607
   42    44     0     0     0
SMALL
USER_CHARGES

@<TRIPOS>ATOM
      1 C1          0.3455   -2.8345    2.4983 C.3       1 <0>        -0.0989
      2 C2          0.1771   -2.0903    1.1987 C.ar      1 <0>        -0.0178
      3 C3          0.2824   -2.7562    0.0107 C.ar      1 <0>        -0.2085
      4 C4          0.1273   -2.0692   -1.1908 C.ar      1 <0>         0.2050
      5 C5         -0.1356   -0.7012   -1.1860 C.ar      1 <0>        -0.2131
      6 C6         -0.2423   -0.0287   -0.0023 C.ar      1 <0>        -0.0478
      7 C7         -0.0932   -0.7171    1.2076 C.ar      1 <0>        -0.1746
      8 C8         -0.2133    0.0026    2.4853 C.2       1 <0>         0.5269
      9 O1         -0.8940   -0.4639    3.3886 O.co2     1 <0>        -0.6898
     10 O2          0.3674    1.0677    2.6444 O.co2     1 <0>        -0.6959
     11 N1          0.2355   -2.7498   -2.3969 N.pl3     1 <0>        -0.6291
     12 C9          0.1942   -2.0218   -3.6725 C.3       1 <0>         0.1230
     13 C10        -0.8987   -2.6360   -4.5545 C.3       1 <0>        -0.1228
     14 C11        -0.6668   -4.1373   -4.6776 C.3       1 <0>        -0.0568
     15 C12        -1.7334   -4.7635   -5.6014 C.3       1 <0>        -0.1159
     16 C13        -1.0335   -6.0505   -6.1071 C.3       1 <0>        -0.1240
     17 C14         0.4401   -5.6328   -6.2950 C.3       1 <0>        -0.1235
     18 C15         0.6725   -4.4172   -5.3786 C.3       1 <0>        -0.1177
     19 C16        -0.7012   -4.8095   -3.3101 C.3       1 <0>        -0.1198
     20 C17         0.3995   -4.2097   -2.4196 C.3       1 <0>         0.1221
     21 H1         -0.6327   -3.1314    2.8764 H         1 <0>         0.0709
     22 H2          0.9556   -3.7224    2.3321 H         1 <0>         0.0448
     23 H3          0.8356   -2.1880    3.2263 H         1 <0>         0.0703
     24 H4          0.4865   -3.8167    0.0032 H         1 <0>         0.1129
     25 H5         -0.2549   -0.1717   -2.1197 H         1 <0>         0.1124
     26 H6         -0.4458    1.0319    0.0006 H         1 <0>         0.1159
     27 H7         -0.0327   -0.9719   -3.4871 H         1 <0>         0.0829
     28 H8          1.1587   -2.1067   -4.1733 H         1 <0>         0.0550
     29 H9         -1.8743   -2.4547   -4.1034 H         1 <0>         0.0660
     30 H10        -0.8656   -2.1807   -5.5443 H         1 <0>         0.0684
     31 H11        -2.6348   -5.0091   -5.0400 H         1 <0>         0.0650
     32 H12        -1.9641   -4.0971   -6.4325 H         1 <0>         0.0659
     33 H13        -1.1130   -6.8446   -5.3648 H         1 <0>         0.0640
     34 H14        -1.4632   -6.3703   -7.0565 H         1 <0>         0.0608
     35 H15         1.0999   -6.4505   -6.0052 H         1 <0>         0.0599
     36 H16         0.6205   -5.3571   -7.3340 H         1 <0>         0.0595
     37 H17         0.9714   -3.5533   -5.9722 H         1 <0>         0.0630
     38 H18         1.4402   -4.6474   -4.6398 H         1 <0>         0.0670
     39 H19        -1.6751   -4.6455   -2.8489 H         1 <0>         0.0661
     40 H20        -0.5297   -5.8796   -3.4267 H         1 <0>         0.0689
     41 H21         1.3794   -4.4613   -2.8251 H         1 <0>         0.0564
     42 H22         0.3081   -4.6037   -1.4074 H         1 <0>         0.0829
@<TRIPOS>BOND
     1    1    2 1
     2    1   21 1
     3    1   22 1
     4    1   23 1
     5    2    7 ar
     6    2    3 ar
     7    3    4 ar
     8    3   24 1
     9    4    5 ar
    10    4   11 1
    11    5    6 ar
    12    5   25 1
    13    6    7 ar
    14    6   26 1
    15    7    8 1
    16    8    9 2
    17    8   10 1
    18   11   20 1
    19   11   12 1
    20   12   13 1
    21   12   27 1
    22   12   28 1
    23   13   14 1
    24   13   29 1
    25   13   30 1
    26   14   18 1
    27   14   15 1
    28   14   19 1
    29   15   16 1
    30   15   31 1
    31   15   32 1
    32   16   17 1
    33   16   33 1
    34   16   34 1
    35   17   18 1
    36   17   35 1
    37   17   36 1
    38   18   37 1
    39   18   38 1
    40   19   20 1
    41   19   39 1
    42   19   40 1
    43   20   41 1
    44   20   42 1
@<TRIPOS>MOLECULE
ZINC13425306
   32    33     0     0     0
SMALL
USER_CHARGES
2-(4-methyl-6-sulfanyl-pyrimidin-2-yl)sulfanyl-1-(p-tolyl)ethanone
@<TRIPOS>ATOM
      1 C1         -5.0314    4.0147    0.0480 C.3       1 <0>        -0.1196
      2 C2         -3.7162    3.2791    0.0379 C.ar      1 <0>        -0.0558
      3 C3         -3.7017    1.8951    0.0299 C.ar      1 <0>        -0.1382
      4 C4         -2.5024    1.2147    0.0205 C.ar      1 <0>        -0.0552
      5 C5         -1.2987    1.9268    0.0187 C.ar      1 <0>        -0.1680
      6 C6         -1.3218    3.3250    0.0322 C.ar      1 <0>        -0.0609
      7 C7         -2.5293    3.9909    0.0361 C.ar      1 <0>        -0.1327
      8 C8         -0.0144    1.2083    0.0087 C.2       1 <0>         0.4153
      9 O1          0.0021   -0.0041    0.0020 O.2       1 <0>        -0.4402
     10 C9          1.2803    1.9795    0.0005 C.3       1 <0>        -0.1522
     11 S1          2.6718    0.8222   -0.0190 S.3       1 <0>         0.0218
     12 C10         4.0166    1.9607   -0.0258 C.ar      1 <0>         0.2926
     13 N1          5.2578    1.4949   -0.0346 N.ar      1 <0>        -0.5492
     14 C11         6.2948    2.3196   -0.0447 C.ar      1 <0>         0.1722
     15 C12         6.0743    3.6830   -0.0353 C.ar      1 <0>        -0.2467
     16 C13         4.7558    4.1450   -0.0206 C.ar      1 <0>         0.3575
     17 N2          3.7623    3.2609   -0.0164 N.ar      1 <0>        -0.5485
     18 C14         7.7001    1.7756   -0.0600 C.3       1 <0>        -0.0939
     19 H1         -5.3438    4.1862    1.0781 H         1 <0>         0.0745
     20 H2         -4.9163    4.9718   -0.4608 H         1 <0>         0.0700
     21 H3         -5.7853    3.4184   -0.4658 H         1 <0>         0.0682
     22 H4         -4.6321    1.3467    0.0313 H         1 <0>         0.1274
     23 H5         -2.4926    0.1348    0.0143 H         1 <0>         0.1341
     24 H6         -0.3964    3.8818    0.0357 H         1 <0>         0.1405
     25 H7         -2.5489    5.0707    0.0424 H         1 <0>         0.1308
     26 H8          1.3177    2.5595   -0.8133 H         1 <0>         0.1143
     27 H9          1.3381    2.6021    0.8933 H         1 <0>         0.1292
     28 H10         6.9024    4.3763   -0.0394 H         1 <0>         0.1342
     29 H11         8.0479    1.6388    0.9639 H         1 <0>         0.0753
     30 H12         7.7131    0.8174   -0.5793 H         1 <0>         0.0735
     31 H13         8.3557    2.4773   -0.5758 H         1 <0>         0.0733
     32 S2          4.4142    5.8735   -0.0087 S.3       1 <0>        -0.8436
@<TRIPOS>BOND
     1    1    2 1
     2    1   19 1
     3    1   20 1
     4    1   21 1
     5    2    7 ar
     6    2    3 ar
     7    3    4 ar
     8    3   22 1
     9    4    5 ar
    10    4   23 1
    11    5    6 ar
    12    5    8 1
    13    6    7 ar
    14    6   24 1
    15    7   25 1
    16    8    9 2
    17    8   10 1
    18   10   11 1
    19   10   26 1
    20   10   27 1
    21   11   12 1
    22   12   17 ar
    23   12   13 ar
    24   13   14 ar
    25   14   15 ar
    26   14   18 1
    27   15   16 ar
    28   15   28 1
    29   16   17 ar
    30   16   32 1
    31   18   29 1
    32   18   30 1
    33   18   31 1
@<TRIPOS>MOLECULE
ZINC41466125
   38    39     0     0     0
SMALL
USER_CHARGES

@<TRIPOS>ATOM
      1 C1         -0.0184    1.5028    0.0103 C.3       1 <0>        -0.0704
      2 C2          0.0021   -0.0041    0.0020 C.2       1 <0>         0.0173
      3 C3          0.0052   -0.6786   -1.1785 C.2       1 <0>        -0.0640
      4 S1          0.0311   -2.3682   -0.5929 S.3       1 <0>        -0.0051
      5 C4          0.0349   -1.9927    1.1552 C.2       1 <0>         0.0986
      6 N1          0.0223   -0.6673    1.1341 N.2       1 <0>        -0.4744
      7 C5          0.0529   -2.9127    2.3127 C.ar      1 <0>         0.0086
      8 C6          0.0759   -4.2933    2.1102 C.ar      1 <0>        -0.0980
      9 C7          0.0925   -5.1463    3.1944 C.ar      1 <0>        -0.1124
     10 C8          0.0860   -4.6357    4.4803 C.ar      1 <0>        -0.0684
     11 C9          0.0628   -3.2680    4.6878 C.ar      1 <0>        -0.1209
     12 C10         0.0527   -2.4041    3.6122 C.ar      1 <0>        -0.0786
     13 C11         0.1038   -5.5733    5.6599 C.3       1 <0>        -0.0296
     14 C12         1.3676   -6.4341    5.6082 C.3       1 <0>        -0.1392
     15 C13         0.0922   -4.7616    6.9568 C.3       1 <0>        -0.1449
     16 C14        -1.1305   -6.4762    5.6123 C.3       1 <0>        -0.1385
     17 C15        -0.0096   -0.1491   -2.5894 C.3       1 <0>        -0.1149
     18 C16         1.4061    0.0470   -3.0672 C.2       1 <0>         0.5007
     19 O1          2.3405   -0.2185   -2.3303 O.co2     1 <0>        -0.6801
     20 O2          1.6171    0.4712   -4.1906 O.co2     1 <0>        -0.6921
     21 H1          1.0042    1.8801    0.0026 H         1 <0>         0.0714
     22 H2         -0.5455    1.8639   -0.8728 H         1 <0>         0.0678
     23 H3         -0.5286    1.8543    0.9071 H         1 <0>         0.0636
     24 H4          0.0803   -4.6931    1.1069 H         1 <0>         0.1254
     25 H5          0.1103   -6.2149    3.0391 H         1 <0>         0.1249
     26 H6          0.0575   -2.8757    5.6941 H         1 <0>         0.1299
     27 H7          0.0398   -1.3366    3.7755 H         1 <0>         0.1328
     28 H8          2.2469   -5.7908    5.6421 H         1 <0>         0.0574
     29 H9          1.3805   -7.1122    6.4614 H         1 <0>         0.0568
     30 H10         1.3759   -7.0123    4.6843 H         1 <0>         0.0578
     31 H11        -0.8082   -4.1484    6.9936 H         1 <0>         0.0593
     32 H12         0.1051   -5.4398    7.8100 H         1 <0>         0.0566
     33 H13         0.9715   -4.1184    6.9907 H         1 <0>         0.0597
     34 H14        -1.1222   -7.0545    4.6884 H         1 <0>         0.0575
     35 H15        -1.1176   -7.1544    6.4656 H         1 <0>         0.0567
     36 H16        -2.0309   -5.8630    5.6492 H         1 <0>         0.0567
     37 H17        -0.5171   -0.8618   -3.2395 H         1 <0>         0.0798
     38 H18        -0.5369    0.8045   -2.6141 H         1 <0>         0.0918
@<TRIPOS>BOND
     1    1    2 1
     2    1   21 1
     3    1   22 1
     4    1   23 1
     5    2    6 1
     6    2    3 2
     7    3    4 1
     8    3   17 1
     9    4    5 1
    10    5    6 2
    11    5    7 1
    12    7   12 ar
    13    7    8 ar
    14    8    9 ar
    15    8   24 1
    16    9   10 ar
    17    9   25 1
    18   10   11 ar
    19   10   13 1
    20   11   12 ar
    21   11   26 1
    22   12   27 1
    23   13   14 1
    24   13   15 1
    25   13   16 1
    26   14   28 1
    27   14   29 1
    28   14   30 1
    29   15   31 1
    30   15   32 1
    31   15   33 1
    32   16   34 1
    33   16   35 1
    34   16   36 1
    35   17   18 1
    36   17   37 1
    37   17   38 1
    38   18   19 2
    39   18   20 1
@<TRIPOS>MOLECULE
ZINC41944028
   40    41     0     0     0
SMALL
USER_CHARGES

@<TRIPOS>ATOM
      1 C1          0.4930    1.4864   -0.0249 C.3       1 <0>        -0.1006
      2 C2          0.3766   -0.0161   -0.0238 C.ar      1 <0>        -0.1447
      3 C3          0.1403   -0.6909   -1.2074 C.ar      1 <0>        -0.0936
      4 C4          0.0328   -2.0680   -1.2091 C.ar      1 <0>        -0.1577
      5 C5          0.1625   -2.7742   -0.0218 C.ar      1 <0>         0.1690
      6 C6          0.4000   -2.0950    1.1641 C.ar      1 <0>        -0.1700
      7 C7          0.5119   -0.7178    1.1596 C.ar      1 <0>        -0.0674
      8 C8          0.7755    0.0203    2.4467 C.3       1 <0>        -0.1060
      9 O1          0.0567   -4.1291   -0.0207 O.3       1 <0>        -0.2982
     10 C9         -0.0525   -4.7723   -1.2920 C.3       1 <0>         0.0467
     11 C10         1.1777   -4.4401   -2.1390 C.3       1 <0>        -0.1435
     12 C11         2.4373   -4.9335   -1.4242 C.3       1 <0>        -0.1140
     13 C12         2.3499   -6.4478   -1.2238 C.3       1 <0>        -0.1088
     14 C13         1.1197   -6.7800   -0.3769 C.3       1 <0>        -0.0925
     15 H1          1.2030   -6.2894    0.5928 H         1 <0>         0.0735
     16 C14        -0.1399   -6.2866   -1.0916 C.3       1 <0>        -0.0784
     17 C15         1.0323   -8.2943   -0.1765 C.3       1 <0>        -0.1439
     18 C16        -1.2932   -4.2863   -1.9960 C.2       1 <0>         0.4803
     19 O2         -2.0168   -3.4652   -1.4588 O.co2     1 <0>        -0.6695
     20 O3         -1.5733   -4.7142   -3.1028 O.co2     1 <0>        -0.6871
     21 H2          1.5329    1.7702   -0.1873 H         1 <0>         0.0573
     22 H3         -0.1249    1.8981   -0.8229 H         1 <0>         0.0573
     23 H4          0.1553    1.8777    0.9348 H         1 <0>         0.0593
     24 H5          0.0394   -0.1408   -2.1313 H         1 <0>         0.1119
     25 H6         -0.1525   -2.5945   -2.1336 H         1 <0>         0.1387
     26 H7          0.5013   -2.6424    2.0895 H         1 <0>         0.1172
     27 H8         -0.1726    0.2768    2.9192 H         1 <0>         0.0642
     28 H9          1.3557   -0.6139    3.1170 H         1 <0>         0.0599
     29 H10         1.3342    0.9320    2.2348 H         1 <0>         0.0629
     30 H11         1.0944   -4.9307   -3.1087 H         1 <0>         0.0770
     31 H12         1.2399   -3.3613   -2.2817 H         1 <0>         0.0742
     32 H13         3.3137   -4.6968   -2.0276 H         1 <0>         0.0551
     33 H14         2.5205   -4.4429   -0.4545 H         1 <0>         0.0613
     34 H15         2.2666   -6.9384   -2.1936 H         1 <0>         0.0589
     35 H16         3.2472   -6.7993   -0.7147 H         1 <0>         0.0548
     36 H17        -1.0163   -6.5233   -0.4883 H         1 <0>         0.0618
     37 H18        -0.2231   -6.7772   -2.0614 H         1 <0>         0.0813
     38 H19         1.9297   -8.6458    0.3327 H         1 <0>         0.0492
     39 H20         0.1559   -8.5310    0.4268 H         1 <0>         0.0522
     40 H21         0.9491   -8.7849   -1.1463 H         1 <0>         0.0521
@<TRIPOS>BOND
     1    1    2 1
     2    1   21 1
     3    1   22 1
     4    1   23 1
     5    2    7 ar
     6    2    3 ar
     7    3    4 ar
     8    3   24 1
     9    4    5 ar
    10    4   25 1
    11    5    6 ar
    12    5    9 1
    13    6    7 ar
    14    6   26 1
    15    7    8 1
    16    8   27 1
    17    8   28 1
    18    8   29 1
    19    9   10 1
    20   10   16 1
    21   10   11 1
    22   10   18 1
    23   11   12 1
    24   11   30 1
    25   11   31 1
    26   12   13 1
    27   12   32 1
    28   12   33 1
    29   13   14 1
    30   13   34 1
    31   13   35 1
    32   14   15 1
    33   14   16 1
    34   14   17 1
    35   16   36 1
    36   16   37 1
    37   17   38 1
    38   17   39 1
    39   17   40 1
    40   18   19 2
    41   18   20 1
@<TRIPOS>MOLECULE
ZINC43651831
   37    39     0     0     0
SMALL
USER_CHARGES

@<TRIPOS>ATOM
      1 C1         -0.4419    0.6145    0.3034 C.ar      1 <0>        -0.1360
      2 C2          0.6074    1.4988    0.1364 C.ar      1 <0>        -0.1225
      3 C3          1.9018    1.0242    0.0352 C.ar      1 <0>        -0.1223
      4 C4          2.1469   -0.3346    0.1015 C.ar      1 <0>        -0.0594
      5 C5          1.0977   -1.2188    0.2693 C.ar      1 <0>        -0.1134
      6 C6         -0.1968   -0.7443    0.3691 C.ar      1 <0>        -0.1210
      7 C7          3.5579   -0.8520   -0.0098 C.3       1 <0>        -0.0475
      8 H1          4.2454   -0.0158   -0.1374 H         1 <0>         0.0724
      9 C8          3.9230   -1.6294    1.2605 C.3       1 <0>        -0.0964
     10 C9          5.4149   -1.9653    1.2146 C.3       1 <0>        -0.1148
     11 C10         5.7632   -2.5903   -0.1051 C.2       1 <0>         0.2885
     12 O1          6.9232   -3.2694   -0.2024 O.3       1 <0>        -0.7177
     13 C11         4.9864   -2.5103   -1.1863 C.2       1 <0>        -0.5231
     14 C12         3.6664   -1.7941   -1.2104 C.3       1 <0>         0.0014
     15 C13         5.4320   -3.1311   -2.3783 C.2       1 <0>         0.4970
     16 O2          5.5219   -4.3439   -2.4363 O.2       1 <0>        -0.4889
     17 C14         5.7883   -2.3057   -3.5538 C.ar      1 <0>        -0.1814
     18 C15         5.7800   -0.9082   -3.4710 C.ar      1 <0>        -0.0249
     19 C16         6.1210   -0.1825   -4.5985 C.ar      1 <0>        -0.1930
     20 C17         6.4561   -0.8545   -5.7606 C.ar      1 <0>         0.0959
     21 N1          6.4553   -2.1729   -5.8092 N.ar      1 <0>        -0.4999
     22 C18         6.1438   -2.9073   -4.7613 C.ar      1 <0>         0.1299
     23 H2         -1.4527    0.9856    0.3869 H         1 <0>         0.1145
     24 H3          0.4159    2.5604    0.0847 H         1 <0>         0.1158
     25 H4          2.7216    1.7151   -0.0959 H         1 <0>         0.1187
     26 H5          1.2892   -2.2805    0.3207 H         1 <0>         0.1230
     27 H6         -1.0166   -1.4352    0.4999 H         1 <0>         0.1167
     28 H7          3.7124   -1.0171    2.1374 H         1 <0>         0.0503
     29 H8          3.3417   -2.5503    1.3057 H         1 <0>         0.0609
     30 H9          5.9951   -1.0520    1.3463 H         1 <0>         0.0624
     31 H10         5.6529   -2.6635    2.0171 H         1 <0>         0.0642
     32 H11         2.8599   -2.5262   -1.1694 H         1 <0>         0.0327
     33 H12         3.5816   -1.2171   -2.1313 H         1 <0>         0.0347
     34 H13         5.5138   -0.4093   -2.5509 H         1 <0>         0.1434
     35 H14         6.1252    0.8972   -4.5720 H         1 <0>         0.1310
     36 H15         6.7224   -0.2906   -6.6424 H         1 <0>         0.1495
     37 H16         6.1590   -3.9844   -4.8388 H         1 <0>         0.1593
@<TRIPOS>BOND
     1    1    6 ar
     2    1    2 ar
     3    1   23 1
     4    2    3 ar
     5    2   24 1
     6    3    4 ar
     7    3   25 1
     8    4    5 ar
     9    4    7 1
    10    5    6 ar
    11    5   26 1
    12    6   27 1
    13    7    8 1
    14    7   14 1
    15    7    9 1
    16    9   10 1
    17    9   28 1
    18    9   29 1
    19   10   30 1
    20   10   31 1
    21   10   11 1
    22   11   13 2
    23   11   12 1
    24   13   14 1
    25   13   15 1
    26   14   32 1
    27   14   33 1
    28   15   17 1
    29   15   16 2
    30   17   22 ar
    31   17   18 ar
    32   18   19 ar
    33   18   34 1
    34   19   20 ar
    35   19   35 1
    36   20   21 ar
    37   20   36 1
    38   21   22 ar
    39   22   37 1
@<TRIPOS>MOLECULE
ZINC62759593
   43    44     0     0     0
SMALL
USER_CHARGES

@<TRIPOS>ATOM
      1 C1         -0.9030    1.4563    0.1211 C.3       1 <0>        -0.1107
      2 C2         -0.6496   -0.0286    0.0779 C.ar      1 <0>        -0.0571
      3 C3         -0.6527   -0.6950   -1.1339 C.ar      1 <0>        -0.1754
      4 C4         -0.4205   -2.0571   -1.1769 C.ar      1 <0>        -0.0779
      5 C5         -0.1851   -2.7562   -0.0087 C.ar      1 <0>        -0.1130
      6 C6         -0.1814   -2.0901    1.2081 C.ar      1 <0>         0.1652
      7 C7         -0.4087   -0.7219    1.2480 C.ar      1 <0>        -0.2195
      8 O1          0.0500   -2.7755    2.3585 O.3       1 <0>        -0.2606
      9 C8          0.1623   -2.0086    3.5591 C.3       1 <0>         0.1127
     10 H1          0.6498   -1.0588    3.3393 H         1 <0>         0.0598
     11 C9         -1.2331   -1.7458    4.1288 C.3       1 <0>        -0.1461
     12 C10        -1.9175   -3.0790    4.4373 C.3       1 <0>        -0.1096
     13 C11        -1.0861   -3.8540    5.4616 C.3       1 <0>        -0.1169
     14 C12         0.3093   -4.1168    4.8919 C.3       1 <0>        -0.0936
     15 C13         0.9937   -2.7836    4.5834 C.3       1 <0>        -0.1519
     16 H2          1.0793   -2.1987    5.4991 H         1 <0>         0.0730
     17 C14         2.3681   -3.0425    4.0222 C.2       1 <0>         0.4948
     18 O2          3.3480   -2.9475    4.7414 O.co2     1 <0>        -0.7086
     19 O3          2.5002   -3.3470    2.8490 O.co2     1 <0>        -0.6730
     20 C15         0.0670   -4.2412   -0.0562 C.3       1 <0>        -0.0493
     21 C16        -1.1452   -4.9449   -0.6697 C.3       1 <0>        -0.1380
     22 C17         1.3053   -4.5212   -0.9100 C.3       1 <0>        -0.1367
     23 H3          0.0432    1.9893    0.0278 H         1 <0>         0.0674
     24 H4         -1.5607    1.7368   -0.7017 H         1 <0>         0.0623
     25 H5         -1.3750    1.7169    1.0685 H         1 <0>         0.0615
     26 H6         -0.8373   -0.1504   -2.0481 H         1 <0>         0.1132
     27 H7         -0.4235   -2.5752   -2.1245 H         1 <0>         0.1195
     28 H8         -0.4016   -0.2002    2.1936 H         1 <0>         0.1234
     29 H9         -1.1475   -1.1609    5.0446 H         1 <0>         0.0700
     30 H10        -1.8254   -1.1937    3.3991 H         1 <0>         0.0614
     31 H11        -2.9116   -2.8918    4.8432 H         1 <0>         0.0528
     32 H12        -2.0031   -3.6639    3.5216 H         1 <0>         0.0659
     33 H13        -1.0004   -3.2691    6.3774 H         1 <0>         0.0550
     34 H14        -1.5736   -4.8038    5.6814 H         1 <0>         0.0550
     35 H15         0.9016   -4.6689    5.6216 H         1 <0>         0.0550
     36 H16         0.2237   -4.7017    3.9761 H         1 <0>         0.0679
     37 H17         0.2306   -4.6145    0.9547 H         1 <0>         0.0928
     38 H18        -1.3089   -4.5716   -1.6806 H         1 <0>         0.0489
     39 H19        -0.9629   -6.0190   -0.7041 H         1 <0>         0.0519
     40 H20        -2.0274   -4.7454   -0.0614 H         1 <0>         0.0500
     41 H21         1.4876   -5.5953   -0.9444 H         1 <0>         0.0502
     42 H22         1.1416   -4.1479   -1.9209 H         1 <0>         0.0447
     43 H23         2.1689   -4.0199   -0.4729 H         1 <0>         0.0632
@<TRIPOS>BOND
     1    1    2 1
     2    1   23 1
     3    1   24 1
     4    1   25 1
     5    2    7 ar
     6    2    3 ar
     7    3    4 ar
     8    3   26 1
     9    4    5 ar
    10    4   27 1
    11    5    6 ar
    12    5   20 1
    13    6    7 ar
    14    6    8 1
    15    7   28 1
    16    8    9 1
    17    9   10 1
    18    9   15 1
    19    9   11 1
    20   11   12 1
    21   11   29 1
    22   11   30 1
    23   12   13 1
    24   12   31 1
    25   12   32 1
    26   13   14 1
    27   13   33 1
    28   13   34 1
    29   14   15 1
    30   14   35 1
    31   14   36 1
    32   15   16 1
    33   15   17 1
    34   17   18 2
    35   17   19 1
    36   20   21 1
    37   20   22 1
    38   20   37 1
    39   21   38 1
    40   21   39 1
    41   21   40 1
    42   22   41 1
    43   22   42 1
    44   22   43 1
@<TRIPOS>MOLECULE
ZINC03113213
   37    38     0     0     0
SMALL
USER_CHARGES
N-[(3-bromo-5-chloro-2-hydroxy-phenyl)methyleneamino]-2-(2-bromo-4-methoxy-phenoxy)acetamide
@<TRIPOS>ATOM
      1 C1         -1.2052   -4.7989   -0.0110 C.3       1 <0>         0.0212
      2 O1          0.0588   -4.1323   -0.0199 O.3       1 <0>        -0.3140
      3 C2          0.0397   -2.7726   -0.0128 C.ar      1 <0>         0.0930
      4 C3          1.2312   -2.0623   -0.0208 C.ar      1 <0>        -0.0940
      5 C4          1.2123   -0.6811   -0.0132 C.ar      1 <0>        -0.1662
      6 C5          0.0021   -0.0041    0.0020 C.ar      1 <0>         0.1267
      7 C6         -1.1899   -0.7142    0.0153 C.ar      1 <0>        -0.0870
      8 C7         -1.1708   -2.0963    0.0028 C.ar      1 <0>        -0.1420
      9 Br1        -2.8403    0.2085    0.0439 Br        1 <0>        -0.0218
     10 O2         -0.0164    1.3558    0.0095 O.3       1 <0>        -0.2716
     11 C8          1.2479    2.0218    0.0010 C.3       1 <0>         0.0442
     12 C9          1.0302    3.5130    0.0111 C.2       1 <0>         0.5240
     13 O3         -0.0969    3.9613    0.0243 O.2       1 <0>        -0.4694
     14 N1          2.0878    4.3484    0.0055 N.am      1 <0>        -0.6020
     15 N2          1.8854    5.7347    0.0149 N.2       1 <0>        -0.1846
     16 C10         2.9039    6.5393    0.0095 C.2       1 <0>         0.1277
     17 C11         2.6910    7.9976    0.0193 C.ar      1 <0>        -0.2046
     18 C12         3.7845    8.8669    0.0135 C.ar      1 <0>        -0.0127
     19 C13         3.5786   10.2314    0.0224 C.ar      1 <0>        -0.1714
     20 C14         2.2911   10.7431    0.0369 C.ar      1 <0>        -0.0167
     21 C15         1.2010    9.8924    0.0428 C.ar      1 <0>        -0.2129
     22 C16         1.3907    8.5195    0.0287 C.ar      1 <0>         0.3080
     23 O4          0.3203    7.6831    0.0287 O.3       1 <0>        -0.6147
     24 Br2        -0.5512   10.6033    0.0626 Br        1 <0>        -0.0826
     25 Cl1         4.9380   11.3110    0.0158 Cl        1 <0>        -0.1152
     26 H1         -1.0458   -5.8873   -0.0181 H         1 <0>         0.1028
     27 H2         -1.7801   -4.5067   -0.9021 H         1 <0>         0.0574
     28 H3         -1.7626   -4.5158    0.8941 H         1 <0>         0.0574
     29 H4          2.1738   -2.5893   -0.0326 H         1 <0>         0.1409
     30 H5          2.1402   -0.1284   -0.0187 H         1 <0>         0.1454
     31 H6         -2.0984   -2.6494    0.0097 H         1 <0>         0.1438
     32 H7          1.8225    1.7291    0.8921 H         1 <0>         0.0947
     33 H8          1.8054    1.7387   -0.9040 H         1 <0>         0.0947
     34 H9          3.1098    3.9419   -0.0065 H         1 <0>         0.3763
     35 H10         3.9259    6.1327   -0.0024 H         1 <0>         0.0992
     36 H11         4.7895    8.4717    0.0026 H         1 <0>         0.1124
     37 H12         2.1381   11.8122    0.0434 H         1 <0>         0.1134
@<TRIPOS>BOND
     1    1    2 1
     2    1   26 1
     3    1   27 1
     4    1   28 1
     5    2    3 1
     6    3    8 ar
     7    3    4 ar
     8    4    5 ar
     9    4   29 1
    10    5    6 ar
    11    5   30 1
    12    6    7 ar
    13    6   10 1
    14    7    8 ar
    15    7    9 1
    16    8   31 1
    17   10   11 1
    18   11   12 1
    19   11   32 1
    20   11   33 1
    21   12   13 2
    22   12   14 am
    23   14   15 1
    24   14   34 1
    25   15   16 2
    26   16   17 1
    27   16   35 1
    28   17   22 ar
    29   17   18 ar
    30   18   19 ar
    31   18   36 1
    32   19   20 ar
    33   19   25 1
    34   20   21 ar
    35   20   37 1
    36   21   22 ar
    37   21   24 1
    38   22   23 1
@<TRIPOS>MOLECULE
ZINC32962131
   64    65     0     0     0
SMALL
USER_CHARGES
2-(diisobutylamino)-5-[(2,4,6-trimethylphenyl)sulfonylamino]benzoic acid
@<TRIPOS>ATOM
      1 C1         -2.1482    1.4652   -1.3903 C.3       1 <0>        -0.1247
      2 C2         -0.8700    0.9774   -0.7582 C.ar      1 <0>        -0.0206
      3 C3         -0.8176   -0.2804   -0.1872 C.ar      1 <0>        -0.1581
      4 C4          0.3530   -0.7255    0.3981 C.ar      1 <0>         0.0362
      5 C5          1.4713    0.0870    0.4118 C.ar      1 <0>        -0.6923
      6 C6          1.4188    1.3448   -0.1592 C.ar      1 <0>         0.0366
      7 C7          0.2482    1.7899   -0.7445 C.ar      1 <0>        -0.1566
      8 C8          2.6379    2.2306   -0.1442 C.3       1 <0>        -0.1581
      9 S1          2.9637   -0.4808    1.1568 S.o2      1 <0>         2.6932
     10 O1          3.8001    0.6578    1.3096 O.2       1 <0>        -0.9434
     11 O2          2.5839   -1.2998    2.2541 O.2       1 <0>        -0.9562
     12 N1          3.7108   -1.4732    0.0617 N.pl3     1 <0>        -1.0663
     13 C9          4.2279   -0.9417   -1.1260 C.ar      1 <0>         0.1319
     14 C10         3.4574   -0.0688   -1.8886 C.ar      1 <0>        -0.1642
     15 C11         3.9589    0.4643   -3.0575 C.ar      1 <0>        -0.1442
     16 C12         5.2352    0.1247   -3.4882 C.ar      1 <0>         0.1167
     17 C13         6.0157   -0.7590   -2.7270 C.ar      1 <0>        -0.0690
     18 C14         5.5007   -1.2901   -1.5406 C.ar      1 <0>        -0.0825
     19 C15         7.3703   -1.1246   -3.1753 C.2       1 <0>         0.4886
     20 O3          7.8529   -0.5867   -4.1523 O.co2     1 <0>        -0.5772
     21 O4          8.0745   -2.0557   -2.5019 O.co2     1 <0>        -0.7681
     22 N2          5.7379    0.6585   -4.6703 N.pl3     1 <0>        -0.4579
     23 C16         4.8344    0.3872   -5.7964 C.3       1 <0>         0.0638
     24 C17         4.7783   -1.1199   -6.0537 C.3       1 <0>        -0.0876
     25 C18         3.7195   -1.4166   -7.1176 C.3       1 <0>        -0.1438
     26 C19         6.1440   -1.6048   -6.5441 C.3       1 <0>        -0.1577
     27 C20         5.9894    2.0992   -4.5323 C.3       1 <0>         0.0760
     28 C21         6.7371    2.6069   -5.7668 C.3       1 <0>        -0.0887
     29 C22         6.9903    4.1094   -5.6276 C.3       1 <0>        -0.1458
     30 C23         8.0742    1.8737   -5.8905 C.3       1 <0>        -0.1355
     31 C24         0.4105   -2.0971    1.0198 C.3       1 <0>        -0.1789
     32 H1         -2.9201    0.6862   -1.3048 H         1 <0>         0.0691
     33 H2         -1.9697    1.6896   -2.4523 H         1 <0>         0.0769
     34 H3         -2.4877    2.3759   -0.8751 H         1 <0>         0.0760
     35 H4         -1.6912   -0.9152   -0.1980 H         1 <0>         0.1286
     36 H5          0.2072    2.7726   -1.1906 H         1 <0>         0.1301
     37 H6          2.4046    3.1838   -0.6412 H         1 <0>         0.0677
     38 H7          3.4606    1.7311   -0.6768 H         1 <0>         0.0999
     39 H8          2.9382    2.4234    0.8963 H         1 <0>         0.1060
     40 H9          3.8009   -2.5501    0.2673 H         1 <0>         0.4491
     41 H10         2.4627    0.1955   -1.5612 H         1 <0>         0.1255
     42 H11         3.3564    1.1442   -3.6416 H         1 <0>         0.1163
     43 H12         6.0950   -1.9711   -0.9495 H         1 <0>         0.1384
     44 H13         3.8265    0.7557   -5.5548 H         1 <0>         0.0223
     45 H14         5.2060    0.8992   -6.6963 H         1 <0>         0.0762
     46 H15         4.5173   -1.6416   -5.1211 H         1 <0>         0.0653
     47 H16         3.6792   -2.5002   -7.3026 H         1 <0>         0.0518
     48 H17         3.9805   -0.8949   -8.0502 H         1 <0>         0.0503
     49 H18         2.7376   -1.0680   -6.7649 H         1 <0>         0.0450
     50 H19         6.1036   -2.6884   -6.7291 H         1 <0>         0.0329
     51 H20         6.9051   -1.3915   -5.7791 H         1 <0>         0.1133
     52 H21         6.4051   -1.0831   -7.4767 H         1 <0>         0.0378
     53 H22         5.0312    2.6314   -4.4393 H         1 <0>         0.0206
     54 H23         6.5983    2.2808   -3.6344 H         1 <0>         0.0740
     55 H24         6.1313    2.4188   -6.6655 H         1 <0>         0.0617
     56 H25         7.5279    4.4744   -6.5152 H         1 <0>         0.0520
     57 H26         7.5961    4.2974   -4.7289 H         1 <0>         0.0542
     58 H27         6.0289    4.6365   -5.5386 H         1 <0>         0.0455
     59 H28         8.6118    2.2387   -6.7781 H         1 <0>         0.0271
     60 H29         7.8921    0.7935   -5.9906 H         1 <0>         0.0961
     61 H30         8.6800    2.0618   -4.9918 H         1 <0>         0.0489
     62 H31         1.4157   -2.2714    1.4311 H         1 <0>         0.1092
     63 H32         0.1908   -2.8560    0.2545 H         1 <0>         0.0804
     64 H33        -0.3330   -2.1650    1.8276 H         1 <0>         0.0861
@<TRIPOS>BOND
     1    1    2 1
     2    1   32 1
     3    1   33 1
     4    1   34 1
     5    2    7 ar
     6    2    3 ar
     7    3    4 ar
     8    3   35 1
     9    4    5 ar
    10    4   31 1
    11    5    6 ar
    12    5    9 1
    13    6    7 ar
    14    6    8 1
    15    7   36 1
    16    8   37 1
    17    8   38 1
    18    8   39 1
    19    9   10 2
    20    9   11 2
    21    9   12 1
    22   12   13 1
    23   12   40 1
    24   13   18 ar
    25   13   14 ar
    26   14   15 ar
    27   14   41 1
    28   15   16 ar
    29   15   42 1
    30   16   17 ar
    31   16   22 1
    32   17   18 ar
    33   17   19 1
    34   18   43 1
    35   19   20 2
    36   19   21 1
    37   22   23 1
    38   22   27 1
    39   23   24 1
    40   23   44 1
    41   23   45 1
    42   24   25 1
    43   24   26 1
    44   24   46 1
    45   25   47 1
    46   25   48 1
    47   25   49 1
    48   26   50 1
    49   26   51 1
    50   26   52 1
    51   27   28 1
    52   27   53 1
    53   27   54 1
    54   28   29 1
    55   28   30 1
    56   28   55 1
    57   29   56 1
    58   29   57 1
    59   29   58 1
    60   30   59 1
    61   30   60 1
    62   30   61 1
    63   31   62 1
    64   31   63 1
    65   31   64 1
@<TRIPOS>MOLECULE
ZINC36064713
   59    62     0     0     0
SMALL
USER_CHARGES

@<TRIPOS>ATOM
      1 C1          0.5815    1.2498   -0.0060 C.3       1 <0>        -0.1427
      2 C2          0.5903   -0.2791   -0.0653 C.3       1 <0>        -0.0759
      3 C3          1.1288   -0.7269   -1.3997 C.2       1 <0>         0.2555
      4 C4          2.4818   -0.9639   -1.5491 C.2       1 <0>        -0.3763
      5 C5          2.9734   -1.4121   -2.9073 C.3       1 <0>         0.2717
      6 H1          3.4741   -2.3723   -2.7829 H         1 <0>         0.0740
      7 N1          1.9544   -1.5627   -3.9800 N.pl3     1 <0>        -0.5201
      8 C6          2.1734   -1.9572   -5.2849 C.2       1 <0>         0.2342
      9 C7          1.1025   -2.0307   -6.1057 C.2       1 <0>        -0.3082
     10 S1         -0.2253   -1.5383   -5.0244 S.3       1 <0>         0.1175
     11 C8          0.6653   -1.2780   -3.6257 C.2       1 <0>         0.3242
     12 N2          0.3021   -0.8957   -2.4187 N.2       1 <0>        -0.5927
     13 C9          3.5237   -2.2850   -5.7644 C.2       1 <0>        -0.4654
     14 C10         3.6948   -2.7923   -7.0003 C.2       1 <0>         0.5002
     15 O1          2.6385   -2.8935   -7.8434 O.3       1 <0>        -0.7042
     16 N3          4.9498   -3.2105   -7.4094 N.pl3     1 <0>        -0.7543
     17 C11         5.1591   -3.6586   -8.7884 C.3       1 <0>         0.1715
     18 C12         6.5894   -4.1791   -8.9440 C.3       1 <0>        -0.1618
     19 C13         7.5148   -3.4265   -9.9022 C.3       1 <0>        -0.1805
     20 C14         6.9716   -4.8040  -10.2872 C.3       1 <0>        -0.1765
     21 C15         4.0006   -0.4161   -3.3808 C.ar      1 <0>        -0.0683
     22 C16         3.6108    0.6694   -4.1431 C.ar      1 <0>        -0.0770
     23 C17         4.5528    1.5828   -4.5774 C.ar      1 <0>        -0.0895
     24 C18         5.8848    1.4113   -4.2490 C.ar      1 <0>        -0.1200
     25 C19         6.2743    0.3266   -3.4861 C.ar      1 <0>        -0.1162
     26 C20         5.3314   -0.5848   -3.0482 C.ar      1 <0>        -0.0740
     27 C21         5.7554   -1.7647   -2.2120 C.3       1 <0>        -0.1165
     28 C22         4.1281    2.7655   -5.4092 C.3       1 <0>        -0.1087
     29 C23         3.3684   -0.7943   -0.4787 C.2       1 <0>         0.5622
     30 O2          4.0009    0.2418   -0.3697 O.2       1 <0>        -0.4992
     31 O3          3.5228   -1.7794    0.4334 O.3       1 <0>        -0.3590
     32 C24         4.4438   -1.5384    1.4990 C.3       1 <0>         0.0320
     33 H2          1.5975    1.6241   -0.1320 H         1 <0>         0.0579
     34 H3         -0.0512    1.6407   -0.8028 H         1 <0>         0.0607
     35 H4          0.1921    1.5737    0.9592 H         1 <0>         0.0579
     36 H5          1.2230   -0.6700    0.7315 H         1 <0>         0.0725
     37 H6         -0.4256   -0.6534    0.0607 H         1 <0>         0.0854
     38 H7          1.0620   -2.3139   -7.1471 H         1 <0>         0.2354
     39 H8          4.3786   -2.1191   -5.1256 H         1 <0>         0.0859
     40 H9          5.6904   -3.2067   -6.7830 H         1 <0>         0.3844
     41 H10         4.4545   -4.4568   -9.0219 H         1 <0>         0.0585
     42 H11         5.0004   -2.8229   -9.4700 H         1 <0>         0.0471
     43 H12         7.0346   -4.6062   -8.0453 H         1 <0>         0.1037
     44 H13         7.1046   -2.5605  -10.4217 H         1 <0>         0.0944
     45 H14         8.5690   -3.3582   -9.6340 H         1 <0>         0.0899
     46 H15         7.6685   -5.6420  -10.2723 H         1 <0>         0.0917
     47 H16         6.2040   -4.8443  -11.0601 H         1 <0>         0.0951
     48 H17         2.5703    0.8034   -4.3996 H         1 <0>         0.1059
     49 H18         6.6210    2.1246   -4.5889 H         1 <0>         0.1144
     50 H19         7.3149    0.1923   -3.2299 H         1 <0>         0.1147
     51 H20         6.0832   -2.5737   -2.8648 H         1 <0>         0.0706
     52 H21         6.5762   -1.4703   -1.5580 H         1 <0>         0.0630
     53 H22         4.9134   -2.1035   -1.6083 H         1 <0>         0.0603
     54 H23         3.8854    3.6022   -4.7540 H         1 <0>         0.0637
     55 H24         4.9410    3.0509   -6.0768 H         1 <0>         0.0621
     56 H25         3.2506    2.4991   -5.9983 H         1 <0>         0.0641
     57 H26         5.4376   -1.3620    1.0874 H         1 <0>         0.0554
     58 H27         4.1242   -0.6631    2.0645 H         1 <0>         0.0551
     59 H28         4.4722   -2.4062    2.1580 H         1 <0>         0.0942
@<TRIPOS>BOND
     1    1    2 1
     2    1   33 1
     3    1   34 1
     4    1   35 1
     5    2    3 1
     6    2   36 1
     7    2   37 1
     8    3   12 1
     9    3    4 2
    10    4    5 1
    11    4   29 1
    12    5    6 1
    13    5    7 1
    14    5   21 1
    15    7   11 1
    16    7    8 1
    17    8    9 2
    18    8   13 1
    19    9   10 1
    20    9   38 1
    21   10   11 1
    22   11   12 2
    23   13   14 2
    24   13   39 1
    25   14   15 1
    26   14   16 1
    27   16   17 1
    28   16   40 1
    29   17   18 1
    30   17   41 1
    31   17   42 1
    32   18   20 1
    33   18   19 1
    34   18   43 1
    35   19   20 1
    36   19   44 1
    37   19   45 1
    38   20   46 1
    39   20   47 1
    40   21   26 ar
    41   21   22 ar
    42   22   23 ar
    43   22   48 1
    44   23   24 ar
    45   23   28 1
    46   24   25 ar
    47   24   49 1
    48   25   26 ar
    49   25   50 1
    50   26   27 1
    51   27   51 1
    52   27   52 1
    53   27   53 1
    54   28   54 1
    55   28   55 1
    56   28   56 1
    57   29   30 2
    58   29   31 1
    59   31   32 1
    60   32   57 1
    61   32   58 1
    62   32   59 1
@<TRIPOS>MOLECULE
ZINC40127503
   64    67     0     0     0
SMALL
USER_CHARGES

@<TRIPOS>ATOM
      1 C1          0.0888    1.3980    0.0782 C.3       1 <0>        -0.1713
      2 C2          0.0892   -0.1316    0.0440 C.3       1 <0>         0.1221
      3 N1          0.7589   -0.5926   -1.1747 N.pl3     1 <0>        -0.6326
      4 C3          2.2034   -0.8365   -1.1692 C.3       1 <0>         0.1225
      5 C4          2.4736   -2.2906   -0.7773 C.3       1 <0>        -0.1736
      6 C5          0.0202   -0.7995   -2.3419 C.ar      1 <0>         0.2069
      7 C6         -1.3487   -0.5631   -2.3505 C.ar      1 <0>        -0.1979
      8 C7         -2.0760   -0.7683   -3.5064 C.ar      1 <0>        -0.0687
      9 C8         -1.4433   -1.2089   -4.6543 C.ar      1 <0>        -0.1268
     10 C9         -0.0807   -1.4452   -4.6493 C.ar      1 <0>        -0.0435
     11 C10         0.6536   -1.2366   -3.4984 C.ar      1 <0>        -0.1953
     12 C11        -2.2404   -1.4326   -5.9135 C.3       1 <0>         0.2662
     13 H1         -3.2142   -0.9500   -5.8309 H         1 <0>         0.0679
     14 C12        -2.4136   -2.9127   -6.1627 C.2       1 <0>        -0.4989
     15 C13        -1.8311   -3.1789   -7.3548 C.2       1 <0>         0.2576
     16 C14        -1.2738   -1.9289   -7.9128 C.2       1 <0>         0.5108
     17 O1         -0.6886   -1.8390   -8.9738 O.2       1 <0>        -0.5437
     18 N2         -1.5119   -0.9037   -7.0726 N.am      1 <0>        -0.7239
     19 O2         -1.7684   -4.3961   -7.9423 O.3       1 <0>        -0.6595
     20 C15        -3.0836   -3.8752   -5.2824 C.2       1 <0>         0.5079
     21 O3         -2.4427   -4.7635   -4.7521 O.2       1 <0>        -0.4789
     22 C16        -4.5355   -3.7667   -5.0395 C.ar      1 <0>        -0.1712
     23 C17        -5.2956   -2.8269   -5.7424 C.ar      1 <0>        -0.0244
     24 C18        -6.6494   -2.7289   -5.5128 C.ar      1 <0>        -0.1669
     25 C19        -7.2611   -3.5630   -4.5835 C.ar      1 <0>         0.1392
     26 C20        -6.5089   -4.4987   -3.8821 C.ar      1 <0>        -0.2253
     27 C21        -5.1556   -4.6075   -4.1101 C.ar      1 <0>        -0.0342
     28 O4         -8.5958   -3.4632   -4.3602 O.3       1 <0>        -0.3089
     29 C22        -9.1598   -4.3505   -3.3923 C.3       1 <0>         0.1007
     30 C23       -10.6408   -4.0956   -3.2799 C.ar      1 <0>        -0.0986
     31 C24       -11.1155   -3.1667   -2.3728 C.ar      1 <0>        -0.0906
     32 C25       -12.4740   -2.9330   -2.2698 C.ar      1 <0>        -0.1254
     33 C26       -13.3579   -3.6278   -3.0742 C.ar      1 <0>        -0.0793
     34 C27       -12.8831   -4.5560   -3.9819 C.ar      1 <0>        -0.1249
     35 C28       -11.5243   -4.7866   -4.0879 C.ar      1 <0>        -0.0903
     36 C29       -14.8390   -3.3736   -2.9611 C.3       1 <0>        -0.1162
     37 H2          1.1162    1.7620    0.0684 H         1 <0>         0.0527
     38 H3         -0.4406    1.7808   -0.7943 H         1 <0>         0.0594
     39 H4         -0.4095    1.7410    0.9850 H         1 <0>         0.0593
     40 H5          0.6187   -0.5144    0.9165 H         1 <0>         0.0671
     41 H6         -0.9382   -0.4955    0.0538 H         1 <0>         0.0738
     42 H7          2.6077   -0.6471   -2.1636 H         1 <0>         0.0739
     43 H8          2.6815   -0.1715   -0.4499 H         1 <0>         0.0668
     44 H9          3.5484   -2.4721   -0.7732 H         1 <0>         0.0599
     45 H10         2.0693   -2.4800    0.2171 H         1 <0>         0.0528
     46 H11         1.9956   -2.9556   -1.4966 H         1 <0>         0.0620
     47 H12        -1.8436   -0.2197   -1.4541 H         1 <0>         0.1154
     48 H13        -3.1403   -0.5847   -3.5137 H         1 <0>         0.1169
     49 H14         0.4104   -1.7892   -5.5475 H         1 <0>         0.1153
     50 H15         1.7184   -1.4170   -3.4964 H         1 <0>         0.1155
     51 H16        -1.2487    0.0199   -7.2085 H         1 <0>         0.4049
     52 H17        -4.8212   -2.1784   -6.4641 H         1 <0>         0.1417
     53 H18        -7.2372   -2.0030   -6.0550 H         1 <0>         0.1302
     54 H19        -6.9877   -5.1442   -3.1606 H         1 <0>         0.1255
     55 H20        -4.5729   -5.3378   -3.5684 H         1 <0>         0.1310
     56 H21        -8.9910   -5.3816   -3.7027 H         1 <0>         0.0715
     57 H22        -8.6874   -4.1804   -2.4248 H         1 <0>         0.0712
     58 H23       -10.4249   -2.6239   -1.7444 H         1 <0>         0.1248
     59 H24       -12.8449   -2.2078   -1.5606 H         1 <0>         0.1236
     60 H25       -13.5737   -5.0990   -4.6101 H         1 <0>         0.1239
     61 H26       -11.1531   -5.5091   -4.7997 H         1 <0>         0.1253
     62 H27       -15.1244   -2.5768   -3.6480 H         1 <0>         0.0716
     63 H28       -15.3840   -4.2833   -3.2133 H         1 <0>         0.0665
     64 H29       -15.0798   -3.0770   -1.9403 H         1 <0>         0.0664
@<TRIPOS>BOND
     1    1    2 1
     2    1   37 1
     3    1   38 1
     4    1   39 1
     5    2    3 1
     6    2   40 1
     7    2   41 1
     8    3    4 1
     9    3    6 1
    10    4    5 1
    11    4   42 1
    12    4   43 1
    13    5   44 1
    14    5   45 1
    15    5   46 1
    16    6   11 ar
    17    6    7 ar
    18    7    8 ar
    19    7   47 1
    20    8    9 ar
    21    8   48 1
    22    9   10 ar
    23    9   12 1
    24   10   11 ar
    25   10   49 1
    26   11   50 1
    27   12   13 1
    28   12   18 1
    29   12   14 1
    30   14   15 2
    31   14   20 1
    32   15   16 1
    33   15   19 1
    34   16   17 2
    35   16   18 am
    36   18   51 1
    37   20   21 2
    38   20   22 1
    39   22   27 ar
    40   22   23 ar
    41   23   24 ar
    42   23   52 1
    43   24   25 ar
    44   24   53 1
    45   25   26 ar
    46   25   28 1
    47   26   27 ar
    48   26   54 1
    49   27   55 1
    50   28   29 1
    51   29   30 1
    52   29   56 1
    53   29   57 1
    54   30   35 ar
    55   30   31 ar
    56   31   32 ar
    57   31   58 1
    58   32   33 ar
    59   32   59 1
    60   33   34 ar
    61   33   36 1
    62   34   35 ar
    63   34   60 1
    64   35   61 1
    65   36   62 1
    66   36   63 1
    67   36   64 1
@<TRIPOS>MOLECULE
ZINC08400622
   49    51     0     0     0
SMALL
USER_CHARGES

@<TRIPOS>ATOM
      1 C1         -0.0184    1.5028    0.0103 C.3       1 <0>        -0.1957
      2 C2          0.0021   -0.0041    0.0020 C.2       1 <0>         0.3969
      3 O1          1.0602   -0.5960   -0.0113 O.2       1 <0>        -0.4711
      4 C3         -1.2624   -0.7573    0.0100 C.ar      1 <0>        -0.1407
      5 C4         -2.4849   -0.0773    0.0195 C.ar      1 <0>        -0.1797
      6 C5         -3.6677   -0.7863    0.0265 C.ar      1 <0>        -0.0786
      7 C6         -3.6513   -2.1691    0.0243 C.ar      1 <0>        -0.2373
      8 C7         -2.4424   -2.8557    0.0149 C.ar      1 <0>         0.2654
      9 C8         -1.2468   -2.1545    0.0024 C.ar      1 <0>        -0.1144
     10 N1         -2.4328   -4.2528    0.0131 N.2       1 <0>        -1.0891
     11 S1         -3.8611   -5.0907    0.0222 S.o2      1 <0>         2.6036
     12 O2         -4.4813   -4.8226    1.2722 O.2       1 <0>        -1.0289
     13 O3         -4.4989   -4.8196   -1.2184 O.2       1 <0>        -1.0297
     14 C9         -3.4588   -6.8062    0.0172 C.ar      1 <0>        -0.6373
     15 C10        -3.3042   -7.4750   -1.1833 C.ar      1 <0>         0.0133
     16 C11        -2.9889   -8.8195   -1.1908 C.ar      1 <0>        -0.1821
     17 C12        -2.8270   -9.5001    0.0094 C.ar      1 <0>         0.1863
     18 C13        -2.9830   -8.8251    1.2136 C.ar      1 <0>        -0.1903
     19 C14        -3.2928   -7.4793    1.2138 C.ar      1 <0>         0.0153
     20 N2         -2.5084  -10.8606    0.0055 N.pl3     1 <0>        -0.6395
     21 C15        -2.3495  -11.5283    1.1865 C.2       1 <0>         0.2339
     22 C16        -2.0412  -12.8450    1.1827 C.2       1 <0>        -0.3781
     23 C17        -1.8770  -13.5353    2.4038 C.2       1 <0>         0.4424
     24 O4         -2.0131  -12.9446    3.4605 O.2       1 <0>        -0.4840
     25 C18        -1.5396  -14.9759    2.3996 C.ar      1 <0>        -0.1308
     26 C19        -1.3774  -15.6539    1.1902 C.ar      1 <0>        -0.0603
     27 C20        -1.0625  -16.9964    1.1917 C.ar      1 <0>        -0.1111
     28 C21        -0.9075  -17.6730    2.3903 C.ar      1 <0>        -0.0118
     29 C22        -1.0677  -17.0058    3.5945 C.ar      1 <0>        -0.0433
     30 C23        -1.3768  -15.6605    3.6047 C.ar      1 <0>        -0.0480
     31 Cl1        -0.8727  -17.8617    5.0921 Cl        1 <0>        -0.0437
     32 Cl2        -0.5116  -19.3633    2.3841 Cl        1 <0>        -0.0447
     33 H1          1.0042    1.8801    0.0026 H         1 <0>         0.0753
     34 H2         -0.5455    1.8639   -0.8728 H         1 <0>         0.0900
     35 H3         -0.5286    1.8543    0.9071 H         1 <0>         0.0901
     36 H4         -2.5023    1.0026    0.0217 H         1 <0>         0.1124
     37 H5         -4.6106   -0.2596    0.0342 H         1 <0>         0.1090
     38 H6         -4.5814   -2.7180    0.0302 H         1 <0>         0.1007
     39 H7         -0.3067   -2.6860   -0.0091 H         1 <0>         0.1239
     40 H8         -3.4305   -6.9454   -2.1160 H         1 <0>         0.1439
     41 H9         -2.8686   -9.3413   -2.1287 H         1 <0>         0.1322
     42 H10        -2.8579   -9.3512    2.1484 H         1 <0>         0.1339
     43 H11        -3.4096   -6.9528    2.1495 H         1 <0>         0.1445
     44 H12        -2.4000  -11.3309   -0.8359 H         1 <0>         0.4144
     45 H13        -2.4702  -11.0047    2.1234 H         1 <0>         0.1639
     46 H14        -1.9205  -13.3686    0.2459 H         1 <0>         0.1282
     47 H15        -1.4986  -15.1279    0.2547 H         1 <0>         0.1484
     48 H16        -0.9369  -17.5215    0.2563 H         1 <0>         0.1482
     49 H17        -1.4968  -15.1400    4.5434 H         1 <0>         0.1540
@<TRIPOS>BOND
     1    1    2 1
     2    1   33 1
     3    1   34 1
     4    1   35 1
     5    2    3 2
     6    2    4 1
     7    4    9 ar
     8    4    5 ar
     9    5    6 ar
    10    5   36 1
    11    6    7 ar
    12    6   37 1
    13    7    8 ar
    14    7   38 1
    15    8    9 ar
    16    8   10 1
    17    9   39 1
    18   10   11 1
    19   11   12 2
    20   11   13 2
    21   11   14 1
    22   14   19 ar
    23   14   15 ar
    24   15   16 ar
    25   15   40 1
    26   16   17 ar
    27   16   41 1
    28   17   18 ar
    29   17   20 1
    30   18   19 ar
    31   18   42 1
    32   19   43 1
    33   20   21 1
    34   20   44 1
    35   21   22 2
    36   21   45 1
    37   22   23 1
    38   22   46 1
    39   23   24 2
    40   23   25 1
    41   25   30 ar
    42   25   26 ar
    43   26   27 ar
    44   26   47 1
    45   27   28 ar
    46   27   48 1
    47   28   29 ar
    48   28   32 1
    49   29   30 ar
    50   29   31 1
    51   30   49 1
@<TRIPOS>MOLECULE
ZINC09186468
   56    60     0     0     0
SMALL
USER_CHARGES
(5S)-5-(4-chlorophenyl)-4-(4-ethoxybenzoyl)-3-hydroxy-1-(6-methoxy-1,3-benzothiazol-2-yl)-5H-pyrrol-2-one
@<TRIPOS>ATOM
      1 C1         -7.9132    0.7719    6.6559 C.3       1 <0>        -0.1533
      2 C2         -6.9486    0.3865    5.5325 C.3       1 <0>         0.0507
      3 O1         -7.6614   -0.3167    4.5130 O.3       1 <0>        -0.3162
      4 C3         -6.9470   -0.7325    3.4369 C.ar      1 <0>         0.1441
      5 C4         -7.5801   -1.4225    2.4090 C.ar      1 <0>        -0.1670
      6 C5         -6.8590   -1.8465    1.3157 C.ar      1 <0>        -0.0313
      7 C6         -5.4881   -1.5820    1.2396 C.ar      1 <0>        -0.1760
      8 C7         -4.8544   -0.8922    2.2777 C.ar      1 <0>        -0.0260
      9 C8         -5.5838   -0.4679    3.3653 C.ar      1 <0>        -0.2242
     10 C9         -4.7107   -2.0352    0.0694 C.2       1 <0>         0.5101
     11 O2         -5.2750   -2.5753   -0.8639 O.2       1 <0>        -0.4670
     12 C10        -3.2590   -1.8348    0.0315 C.2       1 <0>        -0.4837
     13 C11        -2.3095   -2.7996    0.0579 C.2       1 <0>         0.2717
     14 C12        -0.9751   -2.1692    0.0018 C.2       1 <0>         0.5128
     15 O3          0.0808   -2.7703    0.0086 O.2       1 <0>        -0.4841
     16 N1         -1.1011   -0.8311   -0.0585 N.am      1 <0>        -0.5063
     17 C13        -2.5334   -0.5114   -0.0391 C.3       1 <0>         0.2676
     18 H1         -2.7624    0.1362    0.8201 H         1 <0>         0.0885
     19 C14        -2.9180    0.2209   -1.2988 C.ar      1 <0>        -0.0630
     20 C15        -2.4390   -0.2098   -2.5220 C.ar      1 <0>        -0.0789
     21 C16        -2.7960    0.4580   -3.6782 C.ar      1 <0>        -0.1088
     22 C17        -3.6238    1.5645   -3.6101 C.ar      1 <0>        -0.0361
     23 C18        -4.0983    1.9984   -2.3851 C.ar      1 <0>        -0.1101
     24 C19        -3.7452    1.3264   -1.2301 C.ar      1 <0>        -0.0886
     25 Cl1        -4.0674    2.4077   -5.0613 Cl        1 <0>        -0.0848
     26 C20        -0.0634    0.0827   -0.1215 C.2       1 <0>         0.4032
     27 N2         -0.1225    1.3924   -0.1817 N.2       1 <0>        -0.5397
     28 C21         0.9830    2.1676   -0.2403 C.ar      1 <0>         0.0844
     29 C22         1.0572    3.5781   -0.3084 C.ar      1 <0>        -0.0335
     30 C23         2.2587    4.2129   -0.3627 C.ar      1 <0>        -0.1855
     31 C24         3.4577    3.5063   -0.3537 C.ar      1 <0>         0.1277
     32 C25         3.4265    2.1210   -0.2873 C.ar      1 <0>        -0.0906
     33 C26         2.2159    1.4760   -0.2327 C.ar      1 <0>        -0.1416
     34 S1          1.6978   -0.2209   -0.1427 S.3       1 <0>         0.0594
     35 O4          4.6455    4.1659   -0.4085 O.3       1 <0>        -0.3123
     36 C27         4.5929    5.5924   -0.4742 C.3       1 <0>         0.0238
     37 O5         -2.5457   -4.1303    0.1245 O.3       1 <0>        -0.6330
     38 H2         -7.3645    1.3132    7.4407 H         1 <0>         0.0775
     39 H3         -8.3613   -0.1376    7.0825 H         1 <0>         0.0660
     40 H4         -8.7073    1.4172    6.2521 H         1 <0>         0.0657
     41 H5         -6.5005    1.2960    5.1059 H         1 <0>         0.0634
     42 H6         -6.1545   -0.2587    5.9363 H         1 <0>         0.0639
     43 H7         -8.6390   -1.6264    2.4685 H         1 <0>         0.1307
     44 H8         -7.3514   -2.3823    0.5177 H         1 <0>         0.1378
     45 H9         -3.7949   -0.6898    2.2248 H         1 <0>         0.1344
     46 H10        -5.0957    0.0677    4.1662 H         1 <0>         0.1279
     47 H11        -1.7893   -1.0709   -2.5745 H         1 <0>         0.1216
     48 H12        -2.4253    0.1189   -4.6342 H         1 <0>         0.1284
     49 H13        -4.7448    2.8619   -2.3314 H         1 <0>         0.1294
     50 H14        -4.1153    1.6652   -0.2738 H         1 <0>         0.1297
     51 H15         0.1470    4.1594   -0.3177 H         1 <0>         0.1336
     52 H16         2.2830    5.2913   -0.4144 H         1 <0>         0.1344
     53 H17         4.3463    1.5550   -0.2789 H         1 <0>         0.1380
     54 H18         5.6156    5.9956   -0.5137 H         1 <0>         0.1013
     55 H19         4.0794    5.9818    0.4172 H         1 <0>         0.0571
     56 H20         4.0432    5.8978   -1.3767 H         1 <0>         0.0572
@<TRIPOS>BOND
     1    1    2 1
     2    1   38 1
     3    1   39 1
     4    1   40 1
     5    2    3 1
     6    2   41 1
     7    2   42 1
     8    3    4 1
     9    4    9 ar
    10    4    5 ar
    11    5    6 ar
    12    5   43 1
    13    6    7 ar
    14    6   44 1
    15    7    8 ar
    16    7   10 1
    17    8    9 ar
    18    8   45 1
    19    9   46 1
    20   10   11 2
    21   10   12 1
    22   12   17 1
    23   12   13 2
    24   13   14 1
    25   13   37 1
    26   14   15 2
    27   14   16 am
    28   16   17 1
    29   16   26 1
    30   17   18 1
    31   17   19 1
    32   19   24 ar
    33   19   20 ar
    34   20   21 ar
    35   20   47 1
    36   21   22 ar
    37   21   48 1
    38   22   23 ar
    39   22   25 1
    40   23   24 ar
    41   23   49 1
    42   24   50 1
    43   26   34 1
    44   26   27 2
    45   27   28 1
    46   28   33 ar
    47   28   29 ar
    48   29   30 ar
    49   29   51 1
    50   30   31 ar
    51   30   52 1
    52   31   32 ar
    53   31   35 1
    54   32   33 ar
    55   32   53 1
    56   33   34 1
    57   35   36 1
    58   36   54 1
    59   36   55 1
    60   36   56 1
@<TRIPOS>MOLECULE
ZINC09455081
   57    61     0     0     0
SMALL
USER_CHARGES

@<TRIPOS>ATOM
      1 C1         -5.0796    1.7916    3.1381 C.3       1 <0>        -0.1491
      2 C2         -3.9411    0.7703    3.0986 C.3       1 <0>         0.0756
      3 H1         -2.9793    1.2707    2.9863 H         1 <0>         0.0854
      4 C3         -4.1624   -0.2532    1.9599 C.3       1 <0>        -0.1029
      5 C4         -3.6365   -1.5324    2.5825 C.ar      1 <0>        -0.1918
      6 C5         -3.2858   -2.7431    2.0392 C.ar      1 <0>        -0.0228
      7 C6         -2.8134   -3.7673    2.8669 C.ar      1 <0>        -0.1651
      8 C7         -2.7041   -3.5441    4.2431 C.ar      1 <0>        -0.0302
      9 C8         -3.0614   -2.3292    4.7769 C.ar      1 <0>        -0.1527
     10 C9         -3.5364   -1.3068    3.9529 C.ar      1 <0>         0.1187
     11 O1         -3.9529   -0.0511    4.2782 O.3       1 <0>        -0.3030
     12 C10        -2.4341   -5.0730    2.2925 C.2       1 <0>         0.5081
     13 C11        -1.8654   -6.1153    3.1531 C.2       1 <0>        -0.5056
     14 C12        -0.5374   -6.0650    3.8718 C.3       1 <0>         0.2637
     15 H2         -0.5214   -5.2294    4.5715 H         1 <0>         0.0754
     16 N1         -0.4173   -7.3343    4.5987 N.am      1 <0>        -0.6133
     17 C13        -1.5249   -8.0577    4.3535 C.2       1 <0>         0.5120
     18 O2         -1.7489   -9.1640    4.8031 O.2       1 <0>        -0.5298
     19 C14        -2.4316   -7.3052    3.4613 C.2       1 <0>         0.2670
     20 O3         -3.6352   -7.7382    3.0205 O.3       1 <0>        -0.6484
     21 C15         0.7091   -7.7416    5.4422 C.3       1 <0>         0.1435
     22 C16         0.4586   -7.2879    6.8817 C.3       1 <0>        -0.1007
     23 C17         1.6173   -7.7068    7.7494 C.ar      1 <0>        -0.0738
     24 C18         1.6025   -8.9396    8.3745 C.ar      1 <0>        -0.1139
     25 C19         2.6654   -9.3239    9.1704 C.ar      1 <0>        -0.1193
     26 C20         3.7434   -8.4755    9.3408 C.ar      1 <0>        -0.1281
     27 C21         3.7587   -7.2430    8.7149 C.ar      1 <0>        -0.1204
     28 C22         2.6977   -6.8605    7.9156 C.ar      1 <0>        -0.1155
     29 C23         0.5858   -5.9298    2.8762 C.ar      1 <0>        -0.0535
     30 C24         0.9576   -7.0138    2.1027 C.ar      1 <0>        -0.0730
     31 C25         1.9879   -6.8913    1.1896 C.ar      1 <0>        -0.0986
     32 C26         2.6474   -5.6834    1.0489 C.ar      1 <0>        -0.0370
     33 C27         2.2748   -4.5978    1.8232 C.ar      1 <0>        -0.0286
     34 C28         1.2399   -4.7208    2.7330 C.ar      1 <0>        -0.0955
     35 Cl1         3.1018   -3.0815    1.6482 Cl        1 <0>        -0.0606
     36 Cl2         3.9419   -5.5290   -0.0974 Cl        1 <0>        -0.0626
     37 O4         -2.5932   -5.2846    1.1046 O.2       1 <0>        -0.4742
     38 H3         -4.9263    2.4746    3.9736 H         1 <0>         0.0669
     39 H4         -5.0940    2.3559    2.2056 H         1 <0>         0.0775
     40 H5         -6.0296    1.2721    3.2631 H         1 <0>         0.0670
     41 H6         -5.2214   -0.3442    1.7183 H         1 <0>         0.0893
     42 H7         -3.5844    0.0163    1.0760 H         1 <0>         0.0896
     43 H8         -3.3739   -2.9046    0.9750 H         1 <0>         0.1312
     44 H9         -2.3380   -4.3289    4.8884 H         1 <0>         0.1429
     45 H10        -2.9743   -2.1641    5.8406 H         1 <0>         0.1287
     46 H11         0.8094   -8.8266    5.4155 H         1 <0>         0.0803
     47 H12         1.6255   -7.2827    5.0709 H         1 <0>         0.0760
     48 H13         0.3583   -6.2028    6.9085 H         1 <0>         0.0768
     49 H14        -0.4578   -7.7467    7.2530 H         1 <0>         0.0791
     50 H15         0.7602   -9.6024    8.2414 H         1 <0>         0.1235
     51 H16         2.6534  -10.2868    9.6593 H         1 <0>         0.1196
     52 H17         4.5735   -8.7754    9.9631 H         1 <0>         0.1177
     53 H18         4.6008   -6.5801    8.8483 H         1 <0>         0.1193
     54 H19         2.7113   -5.8992    7.4236 H         1 <0>         0.1219
     55 H20         0.4430   -7.9570    2.2123 H         1 <0>         0.1343
     56 H21         2.2783   -7.7386    0.5862 H         1 <0>         0.1390
     57 H22         0.9460   -3.8733    3.3344 H         1 <0>         0.1401
@<TRIPOS>BOND
     1    1    2 1
     2    1   38 1
     3    1   39 1
     4    1   40 1
     5    2    3 1
     6    2   11 1
     7    2    4 1
     8    4    5 1
     9    4   41 1
    10    4   42 1
    11    5   10 ar
    12    5    6 ar
    13    6    7 ar
    14    6   43 1
    15    7    8 ar
    16    7   12 1
    17    8    9 ar
    18    8   44 1
    19    9   10 ar
    20    9   45 1
    21   10   11 1
    22   12   13 1
    23   12   37 2
    24   13   19 2
    25   13   14 1
    26   14   16 1
    27   14   29 1
    28   14   15 1
    29   16   21 1
    30   16   17 am
    31   17   18 2
    32   17   19 1
    33   19   20 1
    34   21   22 1
    35   21   46 1
    36   21   47 1
    37   22   23 1
    38   22   48 1
    39   22   49 1
    40   23   28 ar
    41   23   24 ar
    42   24   25 ar
    43   24   50 1
    44   25   26 ar
    45   25   51 1
    46   26   27 ar
    47   26   52 1
    48   27   28 ar
    49   27   53 1
    50   28   54 1
    51   29   34 ar
    52   29   30 ar
    53   30   31 ar
    54   30   55 1
    55   31   32 ar
    56   31   56 1
    57   32   33 ar
    58   32   36 1
    59   33   34 ar
    60   33   35 1
    61   34   57 1
@<TRIPOS>MOLECULE
ZINC36646998
   50    52     0     0     0
SMALL
USER_CHARGES

@<TRIPOS>ATOM
      1 C1         -0.0187    1.5258    0.0104 C.3       1 <0>        -0.1494
      2 C2          0.0021   -0.0041    0.0020 C.3       1 <0>        -0.1233
      3 C3          0.7182   -0.4975   -1.2568 C.3       1 <0>         0.0652
      4 O1          0.7376   -1.9263   -1.2646 O.3       1 <0>        -0.3049
      5 C4          1.3403   -2.5284   -2.3206 C.ar      1 <0>         0.2450
      6 C5          1.3904   -3.9193   -2.3953 C.ar      1 <0>        -0.1350
      7 C6          2.0153   -4.4894   -3.4906 C.ar      1 <0>        -0.0795
      8 C7          2.5578   -3.6338   -4.4547 C.ar      1 <0>         0.1070
      9 N1          2.4617   -2.3205   -4.2981 N.ar      1 <0>        -0.1972
     10 N2          1.8765   -1.7954   -3.2836 N.ar      1 <0>        -0.2971
     11 C8          3.2389   -4.1933   -5.6479 C.ar      1 <0>        -0.0232
     12 C9          3.3349   -5.5742   -5.8145 C.ar      1 <0>        -0.1977
     13 C10         3.9684   -6.0935   -6.9255 C.ar      1 <0>        -0.0679
     14 C11         4.5094   -5.2483   -7.8760 C.ar      1 <0>        -0.2477
     15 C12         4.4188   -3.8706   -7.7181 C.ar      1 <0>         0.2717
     16 C13         3.7787   -3.3409   -6.6072 C.ar      1 <0>        -0.1270
     17 N3          4.9675   -3.0195   -8.6804 N.2       1 <0>        -1.0820
     18 S1          5.7260   -3.6522  -10.0095 S.o2      1 <0>         2.5968
     19 O2          6.8896   -4.3160   -9.5355 O.2       1 <0>        -1.0182
     20 O3          4.7262   -4.3168  -10.7697 O.2       1 <0>        -1.0178
     21 C14         6.2829   -2.2957  -10.9865 C.ar      1 <0>        -0.6163
     22 C15         5.4594   -1.7603  -11.9591 C.ar      1 <0>         0.0573
     23 C16         5.8963   -0.6961  -12.7256 C.ar      1 <0>        -0.2120
     24 C17         7.1565   -0.1670  -12.5191 C.ar      1 <0>         0.0118
     25 C18         7.9797   -0.7018  -11.5459 C.ar      1 <0>        -0.2119
     26 C19         7.5412   -1.7632  -10.7765 C.ar      1 <0>         0.0588
     27 C20         9.3538   -0.1252  -11.3211 C.3       1 <0>         0.5161
     28 F1          9.5664    0.9337  -12.2102 F         1 <0>        -0.1761
     29 F2          9.4540    0.3425  -10.0064 F         1 <0>        -0.1691
     30 F3         10.3167   -1.1167  -11.5379 F         1 <0>        -0.1714
     31 C21         4.9988   -0.1131  -13.7866 C.3       1 <0>         0.5159
     32 F4          4.2223    0.9091  -13.2305 F         1 <0>        -0.1708
     33 F5          5.7802    0.4067  -14.8242 F         1 <0>        -0.1758
     34 F6          4.1609   -1.1139  -14.2902 F         1 <0>        -0.1700
     35 H1          1.0039    1.9031    0.0027 H         1 <0>         0.0590
     36 H2         -0.5459    1.8868   -0.8726 H         1 <0>         0.0590
     37 H3         -0.5289    1.8773    0.9072 H         1 <0>         0.0626
     38 H4          0.5293   -0.3651    0.8851 H         1 <0>         0.0713
     39 H5         -1.0205   -0.3814    0.0098 H         1 <0>         0.0713
     40 H6          0.1910   -0.1364   -2.1398 H         1 <0>         0.0689
     41 H7          1.7408   -0.1202   -1.2645 H         1 <0>         0.0689
     42 H8          0.9548   -4.5337   -1.6212 H         1 <0>         0.1531
     43 H9          2.0823   -5.5621   -3.5974 H         1 <0>         0.1596
     44 H10         2.9138   -6.2378   -5.0738 H         1 <0>         0.1084
     45 H11         4.0420   -7.1635   -7.0523 H         1 <0>         0.1097
     46 H12         5.0040   -5.6596   -8.7434 H         1 <0>         0.1000
     47 H13         3.7032   -2.2705   -6.4847 H         1 <0>         0.1292
     48 H14         4.4748   -2.1737  -12.1205 H         1 <0>         0.1609
     49 H15         7.4982    0.6640  -13.1184 H         1 <0>         0.1548
     50 H16         8.1829   -2.1786  -10.0136 H         1 <0>         0.1591
@<TRIPOS>BOND
     1    1    2 1
     2    1   35 1
     3    1   36 1
     4    1   37 1
     5    2    3 1
     6    2   38 1
     7    2   39 1
     8    3    4 1
     9    3   40 1
    10    3   41 1
    11    4    5 1
    12    5   10 ar
    13    5    6 ar
    14    6    7 ar
    15    6   42 1
    16    7    8 ar
    17    7   43 1
    18    8    9 ar
    19    8   11 1
    20    9   10 ar
    21   11   16 ar
    22   11   12 ar
    23   12   13 ar
    24   12   44 1
    25   13   14 ar
    26   13   45 1
    27   14   15 ar
    28   14   46 1
    29   15   16 ar
    30   15   17 1
    31   16   47 1
    32   17   18 1
    33   18   19 2
    34   18   20 2
    35   18   21 1
    36   21   26 ar
    37   21   22 ar
    38   22   23 ar
    39   22   48 1
    40   23   24 ar
    41   23   31 1
    42   24   25 ar
    43   24   49 1
    44   25   26 ar
    45   25   27 1
    46   26   50 1
    47   27   28 1
    48   27   29 1
    49   27   30 1
    50   31   32 1
    51   31   33 1
    52   31   34 1
@<TRIPOS>MOLECULE
ZINC40030966
   57    60     0     0     0
SMALL
USER_CHARGES

@<TRIPOS>ATOM
      1 C1         -0.5484    1.1228   -0.8410 C.3       1 <0>        -0.1159
      2 C2         -0.4376   -0.3800   -0.8532 C.ar      1 <0>        -0.0800
      3 C3         -0.1421   -1.0418   -2.0303 C.ar      1 <0>        -0.1247
      4 C4         -0.0405   -2.4203   -2.0415 C.ar      1 <0>        -0.0902
      5 C5         -0.2340   -3.1371   -0.8755 C.ar      1 <0>        -0.0978
      6 C6         -0.5286   -2.4753    0.3019 C.ar      1 <0>        -0.0910
      7 C7         -0.6260   -1.0965    0.3139 C.ar      1 <0>        -0.1253
      8 C8         -0.1242   -4.6401   -0.8879 C.3       1 <0>         0.1006
      9 O1          1.2259   -5.0213   -0.6159 O.3       1 <0>        -0.3090
     10 C9          1.4975   -6.3506   -0.5906 C.ar      1 <0>         0.1402
     11 C10         0.4823   -7.2703   -0.8293 C.ar      1 <0>        -0.2279
     12 C11         0.7536   -8.6196   -0.8046 C.ar      1 <0>        -0.0337
     13 C12         2.0522   -9.0649   -0.5393 C.ar      1 <0>        -0.1648
     14 C13         3.0702   -8.1367   -0.3002 C.ar      1 <0>        -0.0115
     15 C14         2.7914   -6.7890   -0.3316 C.ar      1 <0>        -0.1681
     16 C15         2.3475  -10.5109   -0.5113 C.2       1 <0>         0.5220
     17 O2          1.4435  -11.3188   -0.6169 O.2       1 <0>        -0.4809
     18 C16         3.7302  -10.9740   -0.3562 C.2       1 <0>        -0.4987
     19 C17         4.6905  -10.9818   -1.3097 C.2       1 <0>         0.2566
     20 C18         5.9389  -11.5277   -0.7372 C.2       1 <0>         0.5113
     21 O3          6.9830  -11.6635   -1.3435 O.2       1 <0>        -0.5345
     22 N1          5.7482  -11.8522    0.5545 N.am      1 <0>        -0.6108
     23 C19         4.3593  -11.5282    0.9007 C.3       1 <0>         0.2598
     24 H1          4.3328  -10.7811    1.6939 H         1 <0>         0.0813
     25 C20         3.6333  -12.7746    1.3372 C.ar      1 <0>        -0.0359
     26 C21         4.0746  -14.0151    0.9160 C.ar      1 <0>        -0.1026
     27 C22         3.4092  -15.1583    1.3167 C.ar      1 <0>        -0.1055
     28 C23         2.3018  -15.0618    2.1390 C.ar      1 <0>        -0.1283
     29 C24         1.8599  -13.8222    2.5606 C.ar      1 <0>        -0.0905
     30 C25         2.5288  -12.6779    2.1640 C.ar      1 <0>        -0.0768
     31 Br1         1.9289  -10.9818    2.7463 Br        1 <0>        -0.0528
     32 C26         6.7514  -12.4218    1.4574 C.3       1 <0>         0.1582
     33 C27         7.4899  -11.3084    2.1545 C.2       1 <0>        -0.1607
     34 C28         7.5446  -11.2773    3.4630 C.2       1 <0>        -0.1875
     35 O4          4.5327  -10.5572   -2.5847 O.3       1 <0>        -0.6588
     36 H2          0.4290    1.5575   -0.6316 H         1 <0>         0.0714
     37 H3         -0.8994    1.4692   -1.8131 H         1 <0>         0.0664
     38 H4         -1.2549    1.4288   -0.0694 H         1 <0>         0.0662
     39 H5          0.0090   -0.4817   -2.9413 H         1 <0>         0.1239
     40 H6          0.1897   -2.9374   -2.9613 H         1 <0>         0.1255
     41 H7         -0.6801   -3.0354    1.2128 H         1 <0>         0.1245
     42 H8         -0.8525   -0.5791    1.2345 H         1 <0>         0.1234
     43 H9         -0.7806   -5.0586   -0.1250 H         1 <0>         0.0706
     44 H10        -0.4181   -5.0178   -1.8672 H         1 <0>         0.0714
     45 H11        -0.5205   -6.9255   -1.0341 H         1 <0>         0.1248
     46 H12        -0.0357   -9.3334   -0.9894 H         1 <0>         0.1300
     47 H13         4.0746   -8.4765   -0.0950 H         1 <0>         0.1384
     48 H14         3.5780   -6.0713   -0.1511 H         1 <0>         0.1291
     49 H15         4.9394  -14.0909    0.2734 H         1 <0>         0.1255
     50 H16         3.7540  -16.1273    0.9872 H         1 <0>         0.1227
     51 H17         1.7819  -15.9554    2.4516 H         1 <0>         0.1242
     52 H18         0.9949  -13.7469    3.2029 H         1 <0>         0.1262
     53 H19         6.2579  -13.0503    2.1987 H         1 <0>         0.0795
     54 H20         7.4572  -13.0226    0.8838 H         1 <0>         0.0875
     55 H21         7.9741  -10.5360    1.5753 H         1 <0>         0.1106
     56 H22         8.0739  -10.4793    3.9625 H         1 <0>         0.0968
     57 H23         7.0605  -12.0496    4.0422 H         1 <0>         0.0955
@<TRIPOS>BOND
     1    1    2 1
     2    1   36 1
     3    1   37 1
     4    1   38 1
     5    2    7 ar
     6    2    3 ar
     7    3    4 ar
     8    3   39 1
     9    4    5 ar
    10    4   40 1
    11    5    6 ar
    12    5    8 1
    13    6    7 ar
    14    6   41 1
    15    7   42 1
    16    8    9 1
    17    8   43 1
    18    8   44 1
    19    9   10 1
    20   10   15 ar
    21   10   11 ar
    22   11   12 ar
    23   11   45 1
    24   12   13 ar
    25   12   46 1
    26   13   14 ar
    27   13   16 1
    28   14   15 ar
    29   14   47 1
    30   15   48 1
    31   16   17 2
    32   16   18 1
    33   18   23 1
    34   18   19 2
    35   19   20 1
    36   19   35 1
    37   20   21 2
    38   20   22 am
    39   22   23 1
    40   22   32 1
    41   23   24 1
    42   23   25 1
    43   25   30 ar
    44   25   26 ar
    45   26   27 ar
    46   26   49 1
    47   27   28 ar
    48   27   50 1
    49   28   29 ar
    50   28   51 1
    51   29   30 ar
    52   29   52 1
    53   30   31 1
    54   32   33 1
    55   32   53 1
    56   32   54 1
    57   33   34 2
    58   33   55 1
    59   34   56 1
    60   34   57 1
@<TRIPOS>MOLECULE
ZINC59302242
   54    57     0     0     0
SMALL
USER_CHARGES

@<TRIPOS>ATOM
      1 C1          0.0521    1.4765    0.0798 C.3       1 <0>        -0.0917
      2 C2          0.0680   -0.0303    0.0617 C.2       1 <0>         0.0160
      3 C3          0.0613   -0.7925   -1.0449 C.2       1 <0>        -0.1414
      4 C4          0.0824   -2.1886   -0.5892 C.2       1 <0>        -0.2245
      5 C5          0.1008   -2.1293    0.8181 C.2       1 <0>         0.1549
      6 N1          0.0977   -0.8365    1.1746 N.pl3     1 <0>        -0.3725
      7 C6          0.1179   -0.3743    2.4919 C.ar      1 <0>         0.0865
      8 C7          1.2323   -0.6088    3.2926 C.ar      1 <0>        -0.1171
      9 C8          1.2575   -0.1549    4.5912 C.ar      1 <0>        -0.0632
     10 C9          0.1606    0.5437    5.1079 C.ar      1 <0>        -0.1076
     11 C10        -0.9585    0.7778    4.3000 C.ar      1 <0>         0.0026
     12 C11        -0.9727    0.3239    2.9983 C.ar      1 <0>        -0.1158
     13 Cl1        -2.3233    1.6432    4.9341 Cl        1 <0>        -0.0287
     14 C12         0.1832    1.0306    6.4972 C.2       1 <0>         0.5141
     15 O1          1.1619    0.8247    7.2017 O.co2     1 <0>        -0.6810
     16 O2         -0.7768    1.6412    6.9470 O.co2     1 <0>        -0.6537
     17 C13         0.1262   -3.3087    1.7559 C.3       1 <0>        -0.0982
     18 C14         0.0836   -3.3435   -1.3905 C.2       1 <0>         0.2997
     19 N2          0.1037   -4.5429   -0.8250 N.2       1 <0>        -0.5502
     20 C15         0.1048   -5.6373   -1.5844 C.ar      1 <0>         0.1994
     21 C16        -0.7987   -5.7488   -2.7357 C.ar      1 <0>        -0.2060
     22 C17        -0.7754   -6.8708   -3.4888 C.ar      1 <0>        -0.0129
     23 C18         0.1075   -7.9308   -3.1762 C.ar      1 <0>        -0.2914
     24 C19         0.9892   -7.8514   -2.0730 C.ar      1 <0>        -0.0201
     25 C20         1.0139   -6.7511   -1.2886 C.ar      1 <0>        -0.1521
     26 S1          0.1085   -9.2949   -4.1222 S.3       1 <0>         0.1133
     27 C21        -0.9787  -10.3975   -3.2815 C.ar      1 <0>        -0.0624
     28 C22        -1.6929   -9.9613   -2.1619 C.ar      1 <0>        -0.1306
     29 C23        -2.5416  -10.8287   -1.5088 C.ar      1 <0>        -0.0260
     30 C24        -2.6874  -12.1309   -1.9596 C.ar      1 <0>        -0.0260
     31 C25        -1.9823  -12.5697   -3.0689 C.ar      1 <0>        -0.0294
     32 C26        -1.1351  -11.7106   -3.7347 C.ar      1 <0>        -0.1099
     33 N3         -3.5999  -13.0575   -1.2527 N.pl3     1 <0>        -0.0124
     34 O3         -4.2710  -12.6436   -0.1979 O.2       1 <0>        -0.1789
     35 O4         -3.7406  -14.2957   -1.6787 O.3       1 <0>        -0.1797
     36 H1          1.0756    1.8509    0.0647 H         1 <0>         0.0739
     37 H2         -0.4824    1.8447   -0.7960 H         1 <0>         0.0821
     38 H3         -0.4486    1.8238    0.9835 H         1 <0>         0.0707
     39 H4          0.0437   -0.4467   -2.0679 H         1 <0>         0.1522
     40 H5          2.0787   -1.1483    2.8938 H         1 <0>         0.1278
     41 H6          2.1226   -0.3380    5.2112 H         1 <0>         0.1467
     42 H7         -1.8334    0.5076    2.3723 H         1 <0>         0.1323
     43 H8          1.1598   -3.5817    1.9685 H         1 <0>         0.0826
     44 H9         -0.3784   -3.0447    2.6853 H         1 <0>         0.0690
     45 H10        -0.3846   -4.1526    1.2923 H         1 <0>         0.1068
     46 H11         0.0681   -3.2540   -2.4667 H         1 <0>         0.1113
     47 H12        -1.4753   -4.9427   -2.9784 H         1 <0>         0.1299
     48 H13        -1.4377   -6.9591   -4.3373 H         1 <0>         0.1297
     49 H14         1.6524   -8.6763   -1.8581 H         1 <0>         0.1321
     50 H15         1.6920   -6.6939   -0.4500 H         1 <0>         0.1358
     51 H16        -1.5796   -8.9468   -1.8092 H         1 <0>         0.1476
     52 H17        -3.0939  -10.4930   -0.6437 H         1 <0>         0.1549
     53 H18        -2.1001  -13.5860   -3.4149 H         1 <0>         0.1578
     54 H19        -0.5898  -12.0523   -4.6020 H         1 <0>         0.1535
@<TRIPOS>BOND
     1    1    2 1
     2    1   36 1
     3    1   37 1
     4    1   38 1
     5    2    6 1
     6    2    3 2
     7    3    4 1
     8    3   39 1
     9    4    5 2
    10    4   18 1
    11    5    6 1
    12    5   17 1
    13    6    7 1
    14    7   12 ar
    15    7    8 ar
    16    8    9 ar
    17    8   40 1
    18    9   10 ar
    19    9   41 1
    20   10   11 ar
    21   10   14 1
    22   11   12 ar
    23   11   13 1
    24   12   42 1
    25   14   15 2
    26   14   16 1
    27   17   43 1
    28   17   44 1
    29   17   45 1
    30   18   19 2
    31   18   46 1
    32   19   20 1
    33   20   25 ar
    34   20   21 ar
    35   21   22 ar
    36   21   47 1
    37   22   23 ar
    38   22   48 1
    39   23   24 ar
    40   23   26 1
    41   24   25 ar
    42   24   49 1
    43   25   50 1
    44   26   27 1
    45   27   32 ar
    46   27   28 ar
    47   28   29 ar
    48   28   51 1
    49   29   30 ar
    50   29   52 1
    51   30   31 ar
    52   30   33 1
    53   31   32 ar
    54   31   53 1
    55   32   54 1
    56   33   34 2
    57   33   35 1
@<TRIPOS>MOLECULE
ZINC13037215
   41    43     0     0     0
SMALL
USER_CHARGES
4-[5-chloro-4-[[(1S)-1-(3,4-dichlorophenyl)ethyl]amino]-6-oxo-pyridazin-1-yl]benzoic acid
@<TRIPOS>ATOM
      1 C1        -10.2315    4.6399    1.3477 C.3       1 <0>        -0.1701
      2 C2         -9.8132    5.1350   -0.0383 C.3       1 <0>         0.1789
      3 H1         -9.6490    4.2807   -0.6950 H         1 <0>         0.1035
      4 C3        -10.9019    6.0062   -0.6101 C.ar      1 <0>        -0.0774
      5 C4        -11.0164    7.3235   -0.2060 C.ar      1 <0>        -0.0958
      6 C5        -12.0114    8.1249   -0.7332 C.ar      1 <0>        -0.0914
      7 C6        -12.8999    7.6062   -1.6580 C.ar      1 <0>        -0.0288
      8 C7        -12.7885    6.2857   -2.0588 C.ar      1 <0>        -0.0272
      9 C8        -11.7887    5.4864   -1.5339 C.ar      1 <0>        -0.0844
     10 Cl1       -13.9031    5.6331   -3.2187 Cl        1 <0>        -0.0414
     11 Cl2       -14.1543    8.6103   -2.3153 Cl        1 <0>        -0.0440
     12 N1         -8.5753    5.9104    0.0732 N.pl3     1 <0>        -0.7060
     13 C9         -7.3504    5.2642    0.0659 C.2       1 <0>         0.2501
     14 C10        -7.2873    3.8587   -0.0486 C.2       1 <0>         0.0453
     15 N2         -6.1353    3.2484   -0.0556 N.2       1 <0>        -0.1690
     16 N3         -4.9389    3.9654    0.0489 N.am      1 <0>        -0.3571
     17 C11        -4.9524    5.3079    0.1648 C.2       1 <0>         0.5273
     18 O1         -3.9039    5.9269    0.2607 O.2       1 <0>        -0.5069
     19 C12        -6.1776    5.9901    0.1703 C.2       1 <0>        -0.2232
     20 Cl3        -6.2220    7.7197    0.3130 Cl        1 <0>        -0.0263
     21 C13        -3.7207    3.2839    0.0390 C.ar      1 <0>         0.1186
     22 C14        -3.4683    2.3278   -0.9396 C.ar      1 <0>        -0.1158
     23 C15        -2.2677    1.6537   -0.9524 C.ar      1 <0>        -0.0796
     24 C16        -1.3019    1.9313    0.0189 C.ar      1 <0>        -0.1001
     25 C17        -1.5607    2.8891    1.0034 C.ar      1 <0>        -0.0674
     26 C18        -2.7615    3.5628    1.0074 C.ar      1 <0>        -0.1049
     27 C19        -0.0144    1.2107    0.0087 C.2       1 <0>         0.4885
     28 O2          0.2071    0.3749   -0.8448 O.co2     1 <0>        -0.6288
     29 H2        -11.1526    4.0630    1.2647 H         1 <0>         0.0771
     30 H3         -9.4441    4.0098    1.7613 H         1 <0>         0.0731
     31 H4        -10.3957    5.4942    2.0044 H         1 <0>         0.0678
     32 H5        -10.3257    7.7275    0.5193 H         1 <0>         0.1380
     33 H6        -12.0979    9.1548   -0.4199 H         1 <0>         0.1468
     34 H7        -11.7010    4.4563   -1.8463 H         1 <0>         0.1487
     35 H8         -8.6135    6.8764    0.1521 H         1 <0>         0.4103
     36 H9         -8.1989    3.2854   -0.1305 H         1 <0>         0.1992
     37 H10        -4.2151    2.1137   -1.6899 H         1 <0>         0.1231
     38 H11        -2.0725    0.9116   -1.7124 H         1 <0>         0.1361
     39 H12        -0.8182    3.1032    1.7579 H         1 <0>         0.1402
     40 H13        -2.9609    4.3054    1.7658 H         1 <0>         0.1236
     41 O3          0.9178    1.4836    0.9425 O.co2     1 <0>        -0.7504
@<TRIPOS>BOND
     1    1    2 1
     2    1   29 1
     3    1   30 1
     4    1   31 1
     5    2    3 1
     6    2    4 1
     7    2   12 1
     8    4    9 ar
     9    4    5 ar
    10    5    6 ar
    11    5   32 1
    12    6    7 ar
    13    6   33 1
    14    7    8 ar
    15    7   11 1
    16    8    9 ar
    17    8   10 1
    18    9   34 1
    19   12   13 1
    20   12   35 1
    21   13   19 2
    22   13   14 1
    23   14   15 2
    24   14   36 1
    25   15   16 1
    26   16   17 am
    27   16   21 1
    28   17   18 2
    29   17   19 1
    30   19   20 1
    31   21   26 ar
    32   21   22 ar
    33   22   23 ar
    34   22   37 1
    35   23   24 ar
    36   23   38 1
    37   24   25 ar
    38   24   27 1
    39   25   26 ar
    40   25   39 1
    41   26   40 1
    42   27   28 2
    43   27   41 1
@<TRIPOS>MOLECULE
ZINC20213473
   60    64     0     0     0
SMALL
USER_CHARGES

@<TRIPOS>ATOM
      1 C1         -2.7037   -0.3444    3.0653 C.3       1 <0>        -0.1714
      2 C2         -2.2446    0.7886    2.1840 C.ar      1 <0>        -0.1122
      3 C3         -3.1720    1.6226    1.5909 C.ar      1 <0>        -0.0922
      4 C4         -2.7516    2.6624    0.7820 C.ar      1 <0>        -0.1352
      5 C5         -1.4020    2.8706    0.5641 C.ar      1 <0>        -0.0930
      6 C6         -0.4695    2.0402    1.1542 C.ar      1 <0>        -0.1219
      7 C7         -0.8883    0.9985    1.9718 C.ar      1 <0>         0.1690
      8 N1          0.0539    0.1594    2.5760 N.pl3     1 <0>        -0.6986
      9 C8         -0.2863   -0.5654    3.6602 C.2       1 <0>         0.5846
     10 S1         -0.5731   -2.2465    3.5105 S.2       1 <0>        -0.5659
     11 N2         -0.4008    0.0334    4.8622 N.pl3     1 <0>        -0.5303
     12 C9         -0.2701    1.4915    4.9877 C.3       1 <0>         0.0853
     13 C10         0.7925    1.8020    6.0465 C.3       1 <0>        -0.1292
     14 C11         0.4304    1.0888    7.3513 C.3       1 <0>        -0.0606
     15 C12         0.4079   -0.4237    7.1186 C.3       1 <0>        -0.1286
     16 C13        -0.6646   -0.7589    6.0711 C.3       1 <0>         0.0860
     17 C14         1.4555    1.4194    8.4053 C.2       1 <0>         0.2240
     18 C15         1.0753    2.0298    9.5509 C.2       1 <0>        -0.2968
     19 C16         2.0365    2.3376   10.5345 C.2       1 <0>         0.5665
     20 N3          3.3308    2.0224   10.3295 N.am      1 <0>        -0.3585
     21 C17         3.7082    1.4059    9.1703 C.2       1 <0>         0.3096
     22 N4          2.7646    1.0985    8.2071 N.pl3     1 <0>        -0.6004
     23 C18         5.0532    1.2084    9.2282 C.2       1 <0>        -0.2677
     24 C19         5.5103    1.7178   10.4559 C.2       1 <0>         0.1609
     25 N5          4.4774    2.2044   11.1130 N.2       1 <0>        -0.2468
     26 C20         6.9162    1.7085   10.9310 C.ar      1 <0>        -0.0231
     27 C21         7.9203    1.1648   10.1324 C.ar      1 <0>        -0.0749
     28 C22         9.2261    1.1583   10.5786 C.ar      1 <0>        -0.1120
     29 C23         9.5392    1.6909   11.8175 C.ar      1 <0>        -0.0211
     30 C24         8.5451    2.2322   12.6146 C.ar      1 <0>        -0.1110
     31 C25         7.2373    2.2485   12.1747 C.ar      1 <0>        -0.0707
     32 Cl1        11.1837    1.6793   12.3736 Cl        1 <0>        -0.0625
     33 O1          1.6984    2.8877   11.5675 O.2       1 <0>        -0.4838
     34 C26         1.0011    2.2679    0.9163 C.3       1 <0>        -0.1117
     35 H1         -2.5181   -0.0909    4.1091 H         1 <0>         0.0606
     36 H2         -3.7705   -0.5114    2.9161 H         1 <0>         0.0668
     37 H3         -2.1547   -1.2502    2.8082 H         1 <0>         0.1211
     38 H4         -4.2268    1.4623    1.7588 H         1 <0>         0.1257
     39 H5         -3.4788    3.3129    0.3191 H         1 <0>         0.1252
     40 H6         -1.0768    3.6834   -0.0684 H         1 <0>         0.1273
     41 H7          0.9521    0.0991    2.2146 H         1 <0>         0.4263
     42 H8          0.0334    1.9149    4.0303 H         1 <0>         0.1038
     43 H9         -1.2254    1.9190    5.2923 H         1 <0>         0.0937
     44 H10         1.7650    1.4534    5.6991 H         1 <0>         0.0749
     45 H11         0.8312    2.8776    6.2186 H         1 <0>         0.0969
     46 H12        -0.5531    1.4195    7.6851 H         1 <0>         0.1197
     47 H13         1.3841   -0.7513    6.7611 H         1 <0>         0.0764
     48 H14         0.1730   -0.9322    8.0537 H         1 <0>         0.1004
     49 H15        -1.6514   -0.5111    6.4622 H         1 <0>         0.0942
     50 H16        -0.6214   -1.8207    5.8287 H         1 <0>         0.1380
     51 H17         0.0372    2.2812    9.7114 H         1 <0>         0.1776
     52 H18         5.6612    0.7427    8.4666 H         1 <0>         0.1663
     53 H19         7.6769    0.7488    9.1659 H         1 <0>         0.1394
     54 H20        10.0049    0.7368    9.9605 H         1 <0>         0.1410
     55 H21         8.7943    2.6462   13.5805 H         1 <0>         0.1406
     56 H22         6.4632    2.6753   12.7952 H         1 <0>         0.1423
     57 H23         1.4123    2.8666    1.7291 H         1 <0>         0.0692
     58 H24         1.5156    1.3078    0.8759 H         1 <0>         0.0608
     59 H25         1.1391    2.7941   -0.0283 H         1 <0>         0.0742
     60 H26         3.0360    0.6571    7.3871 H         1 <0>         0.4320
@<TRIPOS>BOND
     1    1    2 1
     2    1   35 1
     3    1   36 1
     4    1   37 1
     5    2    7 ar
     6    2    3 ar
     7    3    4 ar
     8    3   38 1
     9    4    5 ar
    10    4   39 1
    11    5    6 ar
    12    5   40 1
    13    6    7 ar
    14    6   34 1
    15    7    8 1
    16    8    9 1
    17    8   41 1
    18    9   10 2
    19    9   11 1
    20   11   16 1
    21   11   12 1
    22   12   13 1
    23   12   42 1
    24   12   43 1
    25   13   14 1
    26   13   44 1
    27   13   45 1
    28   14   15 1
    29   14   17 1
    30   14   46 1
    31   15   16 1
    32   15   47 1
    33   15   48 1
    34   16   49 1
    35   16   50 1
    36   17   22 1
    37   17   18 2
    38   18   19 1
    39   18   51 1
    40   19   20 am
    41   19   33 2
    42   20   25 1
    43   20   21 1
    44   21   22 1
    45   21   23 2
    46   22   60 1
    47   23   24 1
    48   23   52 1
    49   24   25 2
    50   24   26 1
    51   26   31 ar
    52   26   27 ar
    53   27   28 ar
    54   27   53 1
    55   28   29 ar
    56   28   54 1
    57   29   30 ar
    58   29   32 1
    59   30   31 ar
    60   30   55 1
    61   31   56 1
    62   34   57 1
    63   34   58 1
    64   34   59 1
@<TRIPOS>MOLECULE
ZINC35421738
   56    60     0     0     0
SMALL
USER_CHARGES

@<TRIPOS>ATOM
      1 C1         -0.0184    1.5028    0.0103 C.3       1 <0>        -0.1068
      2 C2          0.0021   -0.0041    0.0020 C.ar      1 <0>        -0.0804
      3 C3          0.0060   -0.6984   -1.1994 C.ar      1 <0>        -0.1107
      4 C4          0.0249   -2.0680   -1.2350 C.ar      1 <0>        -0.0354
      5 C5          0.0407   -2.8218   -0.0384 C.ar      1 <0>         0.1136
      6 C6          0.0362   -2.0811    1.1658 C.ar      1 <0>        -0.1546
      7 C7          0.0229   -0.7088    1.1915 C.ar      1 <0>        -0.0654
      8 S1          0.0599   -3.3614    2.3974 S.3       1 <0>         0.0001
      9 C8          0.0738   -4.7523    1.2750 C.2       1 <0>         0.4199
     10 N1          0.0600   -4.1647    0.1009 N.2       1 <0>        -0.5336
     11 N2          0.0944   -6.1043    1.5687 N.am      1 <0>        -0.5081
     12 C9          0.1033   -6.6965    2.9115 C.3       1 <0>         0.2522
     13 H1         -0.7951   -6.4051    3.4557 H         1 <0>         0.0894
     14 C10         0.1262   -8.1939    2.7103 C.2       1 <0>        -0.4698
     15 C11         0.1297   -8.4080    1.3739 C.2       1 <0>         0.2876
     16 C12         0.1041   -7.1089    0.6739 C.2       1 <0>         0.5087
     17 O1          0.0959   -6.9675   -0.5330 O.2       1 <0>        -0.4625
     18 O2          0.1487   -9.6215    0.7743 O.3       1 <0>        -0.5901
     19 C13         0.1421   -9.2183    3.7611 C.2       1 <0>         0.4488
     20 O3          0.1601  -10.3991    3.4607 O.2       1 <0>        -0.4858
     21 C14         0.1363   -8.8217    5.1701 C.2       1 <0>        -0.1850
     22 C15         0.1509   -9.7645    6.1372 C.2       1 <0>        -0.0770
     23 C16         0.1451   -9.3659    7.5531 C.ar      1 <0>        -0.0513
     24 C17         0.1186   -8.0113    7.9022 C.ar      1 <0>        -0.1105
     25 C18         0.1134   -7.6460    9.2316 C.ar      1 <0>        -0.1198
     26 C19         0.1347   -8.6152   10.2197 C.ar      1 <0>        -0.1241
     27 C20         0.1609   -9.9575    9.8825 C.ar      1 <0>        -0.1218
     28 C21         0.1602  -10.3395    8.5578 C.ar      1 <0>        -0.1066
     29 C22         1.3313   -6.2546    3.6649 C.ar      1 <0>        -0.0877
     30 C23         2.5462   -6.1628    3.0112 C.ar      1 <0>        -0.0777
     31 C24         3.6736   -5.7584    3.6996 C.ar      1 <0>        -0.1379
     32 C25         3.5858   -5.4438    5.0480 C.ar      1 <0>         0.1004
     33 C26         2.3656   -5.5363    5.7015 C.ar      1 <0>        -0.1382
     34 C27         1.2402   -5.9362    5.0073 C.ar      1 <0>        -0.0961
     35 O4          4.6935   -5.0461    5.7276 O.3       1 <0>        -0.4997
     36 C28         0.0284   -2.7789   -2.5638 C.3       1 <0>        -0.1117
     37 H2          1.0042    1.8801    0.0026 H         1 <0>         0.0709
     38 H3         -0.5455    1.8639   -0.8728 H         1 <0>         0.0679
     39 H4         -0.5286    1.8543    0.9071 H         1 <0>         0.0667
     40 H5         -0.0066   -0.1465   -2.1277 H         1 <0>         0.1289
     41 H6          0.0243   -0.1829    2.1348 H         1 <0>         0.1283
     42 H7          0.1203   -7.7752    5.4364 H         1 <0>         0.1240
     43 H8          0.1669  -10.8110    5.8709 H         1 <0>         0.1308
     44 H9          0.1027   -7.2539    7.1325 H         1 <0>         0.1252
     45 H10         0.0929   -6.6008    9.5028 H         1 <0>         0.1215
     46 H11         0.1311   -8.3225   11.2593 H         1 <0>         0.1187
     47 H12         0.1774  -10.7076   10.6593 H         1 <0>         0.1208
     48 H13         0.1762  -11.3872    8.2964 H         1 <0>         0.1251
     49 H14         2.6140   -6.4078    1.9615 H         1 <0>         0.1191
     50 H15         4.6224   -5.6875    3.1887 H         1 <0>         0.1255
     51 H16         2.2948   -5.2920    6.7511 H         1 <0>         0.1278
     52 H17         0.2891   -6.0041    5.5145 H         1 <0>         0.1277
     53 H18         4.8395   -4.0903    5.7167 H         1 <0>         0.3853
     54 H19         1.0568   -2.9360   -2.8891 H         1 <0>         0.0709
     55 H20        -0.4716   -3.7421   -2.4618 H         1 <0>         0.0786
     56 H21        -0.4975   -2.1729   -3.3015 H         1 <0>         0.0638
@<TRIPOS>BOND
     1    1    2 1
     2    1   37 1
     3    1   38 1
     4    1   39 1
     5    2    7 ar
     6    2    3 ar
     7    3    4 ar
     8    3   40 1
     9    4    5 ar
    10    4   36 1
    11    5   10 1
    12    5    6 ar
    13    6    7 ar
    14    6    8 1
    15    7   41 1
    16    8    9 1
    17    9   10 2
    18    9   11 1
    19   11   16 am
    20   11   12 1
    21   12   13 1
    22   12   14 1
    23   12   29 1
    24   14   15 2
    25   14   19 1
    26   15   16 1
    27   15   18 1
    28   16   17 2
    29   19   20 2
    30   19   21 1
    31   21   22 2
    32   21   42 1
    33   22   23 1
    34   22   43 1
    35   23   28 ar
    36   23   24 ar
    37   24   25 ar
    38   24   44 1
    39   25   26 ar
    40   25   45 1
    41   26   27 ar
    42   26   46 1
    43   27   28 ar
    44   27   47 1
    45   28   48 1
    46   29   34 ar
    47   29   30 ar
    48   30   31 ar
    49   30   49 1
    50   31   32 ar
    51   31   50 1
    52   32   33 ar
    53   32   35 1
    54   33   34 ar
    55   33   51 1
    56   34   52 1
    57   35   53 1
    58   36   54 1
    59   36   55 1
    60   36   56 1
@<TRIPOS>MOLECULE
ZINC40027555
   58    60     0     0     0
SMALL
USER_CHARGES

@<TRIPOS>ATOM
      1 C1         -2.3607    1.4601   -1.8639 C.3       1 <0>        -0.0999
      2 C2         -2.3263   -0.0456   -1.8132 C.ar      1 <0>        -0.1342
      3 C3         -1.1838   -0.7199   -2.1812 C.ar      1 <0>        -0.0364
      4 C4         -1.1530   -2.1168   -2.1338 C.ar      1 <0>        -0.1686
      5 C5         -2.2838   -2.8234   -1.7123 C.ar      1 <0>        -0.0281
      6 C6         -3.4220   -2.1415   -1.3461 C.ar      1 <0>        -0.2219
      7 C7         -3.4465   -0.7517   -1.3893 C.ar      1 <0>         0.1403
      8 O1         -4.5687   -0.0830   -1.0221 O.3       1 <0>        -0.3087
      9 C8         -5.6830   -0.8702   -0.5970 C.3       1 <0>         0.0844
     10 C9         -6.8290    0.0377   -0.2314 C.2       1 <0>        -0.1533
     11 C10        -8.0411   -0.2389   -0.6443 C.2       1 <0>        -0.1742
     12 C11         0.0697   -2.8440   -2.5279 C.2       1 <0>         0.5086
     13 O2          1.0317   -2.2314   -2.9525 O.2       1 <0>        -0.4771
     14 C12         0.1250   -4.3044   -2.4079 C.2       1 <0>        -0.5013
     15 C13         0.2109   -5.1949   -3.4232 C.2       1 <0>         0.2621
     16 C14         0.2415   -6.5639   -2.8670 C.2       1 <0>         0.5105
     17 O3          0.3157   -7.5825   -3.5253 O.2       1 <0>        -0.5355
     18 N1          0.1751   -6.5156   -1.5241 N.am      1 <0>        -0.6096
     19 C15         0.1036   -5.1047   -1.1265 C.3       1 <0>         0.2640
     20 H1         -0.8224   -4.9173   -0.5830 H         1 <0>         0.0688
     21 C16         1.2900   -4.7435   -0.2702 C.ar      1 <0>        -0.0671
     22 C17         2.5579   -5.1533   -0.6394 C.ar      1 <0>        -0.0685
     23 C18         3.6470   -4.8240    0.1440 C.ar      1 <0>        -0.1072
     24 C19         3.4677   -4.0810    1.3019 C.ar      1 <0>         0.0899
     25 C20         2.1946   -3.6707    1.6699 C.ar      1 <0>        -0.1109
     26 C21         1.1094   -3.9982    0.8802 C.ar      1 <0>        -0.1075
     27 C22         1.9963   -2.8636    2.9270 C.3       1 <0>        -0.1058
     28 O4          4.5375   -3.7561    2.0745 O.3       1 <0>        -0.4969
     29 C23         5.0285   -5.2717   -0.2584 C.3       1 <0>        -0.1082
     30 C24         0.1791   -7.6673   -0.6187 C.3       1 <0>         0.1627
     31 C25         1.5984   -8.0034   -0.2398 C.2       1 <0>        -0.1591
     32 C26         1.9415   -8.0678    1.0229 C.2       1 <0>        -0.1808
     33 O5          0.2609   -4.8818   -4.7385 O.3       1 <0>        -0.6550
     34 H2         -2.0280    1.8636   -0.9075 H         1 <0>         0.0640
     35 H3         -1.7002    1.8121   -2.6563 H         1 <0>         0.0639
     36 H4         -3.3788    1.7937   -2.0646 H         1 <0>         0.0665
     37 H5         -0.3127   -0.1706   -2.5065 H         1 <0>         0.1355
     38 H6         -2.2642   -3.9025   -1.6746 H         1 <0>         0.1364
     39 H7         -4.2957   -2.6864   -1.0205 H         1 <0>         0.1270
     40 H8         -5.9889   -1.5337   -1.4059 H         1 <0>         0.0683
     41 H9         -5.3983   -1.4637    0.2718 H         1 <0>         0.0726
     42 H10        -6.6510    0.9162    0.3709 H         1 <0>         0.1187
     43 H11        -8.2191   -1.1174   -1.2467 H         1 <0>         0.0999
     44 H12        -8.8624    0.4117   -0.3823 H         1 <0>         0.1064
     45 H13         2.6969   -5.7317   -1.5409 H         1 <0>         0.1173
     46 H14         0.1186   -3.6753    1.1639 H         1 <0>         0.1198
     47 H15         2.0727   -1.8018    2.6929 H         1 <0>         0.0637
     48 H16         1.0107   -3.0741    3.3422 H         1 <0>         0.0622
     49 H17         2.7620   -3.1311    3.6551 H         1 <0>         0.0675
     50 H18         4.9542   -2.9166    1.8364 H         1 <0>         0.3809
     51 H19         5.4860   -4.5127   -0.8929 H         1 <0>         0.0657
     52 H20         5.6381   -5.4153    0.6337 H         1 <0>         0.0676
     53 H21         4.9605   -6.2111   -0.8071 H         1 <0>         0.0627
     54 H22        -0.3892   -7.4255    0.2794 H         1 <0>         0.0779
     55 H23        -0.2762   -8.5230   -1.1173 H         1 <0>         0.0861
     56 H24         2.3327   -8.1913   -1.0091 H         1 <0>         0.1067
     57 H25         1.2072   -7.8799    1.7922 H         1 <0>         0.0932
     58 H26         2.9587   -8.3086    1.2945 H         1 <0>         0.0938
@<TRIPOS>BOND
     1    1    2 1
     2    1   34 1
     3    1   35 1
     4    1   36 1
     5    2    7 ar
     6    2    3 ar
     7    3    4 ar
     8    3   37 1
     9    4    5 ar
    10    4   12 1
    11    5    6 ar
    12    5   38 1
    13    6    7 ar
    14    6   39 1
    15    7    8 1
    16    8    9 1
    17    9   10 1
    18    9   40 1
    19    9   41 1
    20   10   11 2
    21   10   42 1
    22   11   43 1
    23   11   44 1
    24   12   13 2
    25   12   14 1
    26   14   19 1
    27   14   15 2
    28   15   16 1
    29   15   33 1
    30   16   17 2
    31   16   18 am
    32   18   19 1
    33   18   30 1
    34   19   20 1
    35   19   21 1
    36   21   26 ar
    37   21   22 ar
    38   22   23 ar
    39   22   45 1
    40   23   24 ar
    41   23   29 1
    42   24   25 ar
    43   24   28 1
    44   25   26 ar
    45   25   27 1
    46   26   46 1
    47   27   47 1
    48   27   48 1
    49   27   49 1
    50   28   50 1
    51   29   51 1
    52   29   52 1
    53   29   53 1
    54   30   31 1
    55   30   54 1
    56   30   55 1
    57   31   32 2
    58   31   56 1
    59   32   57 1
    60   32   58 1
@<TRIPOS>MOLECULE
ZINC15038028
   55    57     0     0     0
SMALL
USER_CHARGES

@<TRIPOS>ATOM
      1 C1          0.9602    0.3859    1.1470 C.3       1 <0>        -0.1410
      2 C2          0.8445   -1.0908    0.7637 C.3       1 <0>        -0.0351
      3 C3          1.6395   -1.9396    1.7578 C.3       1 <0>        -0.1410
      4 C4         -0.6261   -1.5121    0.7951 C.3       1 <0>        -0.1470
      5 C5          1.3958   -1.2942   -0.6240 C.ar      1 <0>        -0.0385
      6 C6          0.5771   -1.7899   -1.6240 C.ar      1 <0>        -0.1262
      7 C7          1.0737   -1.9789   -2.8962 C.ar      1 <0>        -0.0706
      8 C8          2.4091   -1.6678   -3.1751 C.ar      1 <0>        -0.1066
      9 C9          3.2299   -1.1668   -2.1586 C.ar      1 <0>        -0.0829
     10 C10         2.7165   -0.9791   -0.8930 C.ar      1 <0>        -0.1137
     11 C11         2.9470   -1.8667   -4.5287 C.2       1 <0>         0.0919
     12 C12         4.1733   -1.3841   -4.8487 C.2       1 <0>        -0.2469
     13 C13         5.0044   -1.6400   -6.0445 C.2       1 <0>         0.5437
     14 O1          4.6305   -2.3772   -6.9375 O.2       1 <0>        -0.4512
     15 N1          6.1746   -1.0261   -6.0939 N.am      1 <0>        -0.5201
     16 C14         6.5849   -0.2099   -5.1020 C.2       1 <0>         0.2595
     17 S1          8.0510    0.6663   -4.9845 S.2       1 <0>        -0.3284
     18 S2          5.2263   -0.2576   -3.9444 S.3       1 <0>         0.0743
     19 C15         7.0456   -1.2379   -7.2527 C.3       1 <0>         0.0981
     20 C16         6.7328   -0.1911   -8.3239 C.3       1 <0>        -0.1526
     21 C17         7.6287   -0.4090   -9.5159 C.2       1 <0>         0.5193
     22 O2          8.4376   -1.3125   -9.5094 O.2       1 <0>        -0.5132
     23 N2          7.5309    0.4002  -10.5893 N.am      1 <0>        -0.6623
     24 C18         8.2927    0.1432  -11.7272 C.ar      1 <0>         0.1227
     25 C19         8.6480   -1.1648  -12.0438 C.ar      1 <0>        -0.1370
     26 C20         9.3977   -1.4219  -13.1628 C.ar      1 <0>        -0.0683
     27 C21         9.8051   -0.3672  -13.9870 C.ar      1 <0>        -0.1429
     28 C22         9.4455    0.9462  -13.6656 C.ar      1 <0>        -0.0685
     29 C23         8.6916    1.1946  -12.5475 C.ar      1 <0>        -0.1603
     30 C24        10.6106   -0.6387  -15.1892 C.2       1 <0>         0.5196
     31 O3         10.9244   -1.7877  -15.4685 O.co2     1 <0>        -0.6877
     32 O4         10.9659    0.2846  -15.9088 O.co2     1 <0>        -0.6892
     33 H1          2.0078    0.6861    1.1246 H         1 <0>         0.0596
     34 H2          0.3938    0.9906    0.4388 H         1 <0>         0.0583
     35 H3          0.5614    0.5331    2.1507 H         1 <0>         0.0619
     36 H4          1.2407   -1.7924    2.7616 H         1 <0>         0.0620
     37 H5          1.5571   -2.9916    1.4848 H         1 <0>         0.0580
     38 H6          2.6871   -1.6394    1.7355 H         1 <0>         0.0594
     39 H7         -1.1925   -0.9074    0.0868 H         1 <0>         0.0605
     40 H8         -0.7085   -2.5641    0.5220 H         1 <0>         0.0603
     41 H9         -1.0248   -1.3649    1.7988 H         1 <0>         0.0613
     42 H10        -0.4534   -2.0295   -1.4071 H         1 <0>         0.1365
     43 H11         0.4338   -2.3664   -3.6752 H         1 <0>         0.1351
     44 H12         4.2617   -0.9242   -2.3659 H         1 <0>         0.1324
     45 H13         3.3475   -0.5886   -0.1083 H         1 <0>         0.1319
     46 H14         2.3656   -2.3972   -5.2683 H         1 <0>         0.1638
     47 H15         8.0874   -1.1440   -6.9462 H         1 <0>         0.1246
     48 H16         6.8746   -2.2351   -7.6583 H         1 <0>         0.1159
     49 H17         5.6910   -0.2850   -8.6304 H         1 <0>         0.1014
     50 H18         6.9038    0.8060   -7.9183 H         1 <0>         0.1055
     51 H19         6.9301    1.1615  -10.5696 H         1 <0>         0.4070
     52 H20         8.3332   -1.9784  -11.4070 H         1 <0>         0.1304
     53 H21         9.6736   -2.4370  -13.4074 H         1 <0>         0.1295
     54 H22         9.7583    1.7630  -14.2992 H         1 <0>         0.1304
     55 H23         8.4101    2.2077  -12.3009 H         1 <0>         0.1167
@<TRIPOS>BOND
     1    1    2 1
     2    1   33 1
     3    1   34 1
     4    1   35 1
     5    2    3 1
     6    2    4 1
     7    2    5 1
     8    3   36 1
     9    3   37 1
    10    3   38 1
    11    4   39 1
    12    4   40 1
    13    4   41 1
    14    5   10 ar
    15    5    6 ar
    16    6    7 ar
    17    6   42 1
    18    7    8 ar
    19    7   43 1
    20    8    9 ar
    21    8   11 1
    22    9   10 ar
    23    9   44 1
    24   10   45 1
    25   11   12 2
    26   11   46 1
    27   12   18 1
    28   12   13 1
    29   13   14 2
    30   13   15 am
    31   15   16 1
    32   15   19 1
    33   16   17 2
    34   16   18 1
    35   19   20 1
    36   19   47 1
    37   19   48 1
    38   20   21 1
    39   20   49 1
    40   20   50 1
    41   21   22 2
    42   21   23 am
    43   23   24 1
    44   23   51 1
    45   24   29 ar
    46   24   25 ar
    47   25   26 ar
    48   25   52 1
    49   26   27 ar
    50   26   53 1
    51   27   28 ar
    52   27   30 1
    53   28   29 ar
    54   28   54 1
    55   29   55 1
    56   30   31 2
    57   30   32 1
@<TRIPOS>MOLECULE
ZINC09805732
   47    49     0     0     0
SMALL
USER_CHARGES
3-[5-[(3-bromo-4-isopropoxy-phenyl)methylene]-3-methyl-4-oxo-thiazolidin-2-ylidene]aminobenzoic acid
@<TRIPOS>ATOM
      1 C1          0.5254    2.2609    3.6124 C.3       1 <0>        -0.1768
      2 C2         -0.2842    2.2672    2.3142 C.3       1 <0>         0.0710
      3 C3         -0.8185    3.6770    2.0532 C.3       1 <0>        -0.1503
      4 O1          0.5539    1.8669    1.2282 O.3       1 <0>        -0.2944
      5 C4          0.5713    0.5450    0.9177 C.ar      1 <0>         0.1789
      6 C5         -0.1051   -0.3642    1.7225 C.ar      1 <0>        -0.2122
      7 C6         -0.0909   -1.7056    1.4126 C.ar      1 <0>         0.0099
      8 C7          0.6067   -2.1538    0.2840 C.ar      1 <0>        -0.1160
      9 C8          1.2865   -1.2340   -0.5236 C.ar      1 <0>        -0.0209
     10 C9          1.2610    0.1067   -0.2074 C.ar      1 <0>        -0.1384
     11 Br1         2.1714    1.3520   -1.3012 Br        1 <0>        -0.0374
     12 C10         0.6256   -3.5835   -0.0510 C.2       1 <0>         0.0536
     13 C11        -0.5076   -4.3221    0.0623 C.2       1 <0>        -0.2078
     14 C12        -1.8904   -3.8804    0.3261 C.2       1 <0>         0.5522
     15 O2         -2.1642   -2.7045    0.4804 O.2       1 <0>        -0.4871
     16 N1         -2.8187   -4.8201    0.3876 N.am      1 <0>        -0.5425
     17 C13        -2.4886   -6.1460    0.2106 C.2       1 <0>         0.3797
     18 N2         -3.2787   -7.1958    0.2400 N.2       1 <0>        -0.4278
     19 C14        -2.7618   -8.4472    0.0398 C.ar      1 <0>         0.0569
     20 C15        -1.8569   -8.6732   -1.0013 C.ar      1 <0>        -0.1418
     21 C16        -1.3303   -9.9335   -1.2007 C.ar      1 <0>        -0.1214
     22 C17        -1.7015  -10.9818   -0.3819 C.ar      1 <0>        -0.0679
     23 C18        -2.6093  -10.7720    0.6590 C.ar      1 <0>        -0.1026
     24 C19        -3.1409   -9.5009    0.8703 C.ar      1 <0>        -0.0516
     25 C20        -3.0055  -11.8950    1.5336 C.2       1 <0>         0.4903
     26 O3         -3.7953  -11.7112    2.4380 O.co2     1 <0>        -0.6268
     27 S1         -0.7271   -6.0902   -0.0756 S.3       1 <0>        -0.0339
     28 C21        -4.2118   -4.4476    0.6460 C.3       1 <0>         0.0720
     29 H1         -0.1139    2.5663    4.4408 H         1 <0>         0.0740
     30 H2          0.9060    1.2566    3.7983 H         1 <0>         0.0629
     31 H3          1.3608    2.9553    3.5230 H         1 <0>         0.0689
     32 H4         -1.1196    1.5728    2.4035 H         1 <0>         0.0798
     33 H5         -1.3953    3.6815    1.1283 H         1 <0>         0.0656
     34 H6         -1.4578    3.9823    2.8816 H         1 <0>         0.0775
     35 H7          0.0169    4.3714    1.9638 H         1 <0>         0.0682
     36 H8         -0.6425   -0.0179    2.5928 H         1 <0>         0.1399
     37 H9         -0.6172   -2.4109    2.0386 H         1 <0>         0.1301
     38 H10         1.8264   -1.5743   -1.3949 H         1 <0>         0.1438
     39 H11         1.5410   -4.0473   -0.3874 H         1 <0>         0.1553
     40 H12        -1.5659   -7.8591   -1.6485 H         1 <0>         0.1232
     41 H13        -0.6284  -10.1017   -2.0041 H         1 <0>         0.1247
     42 H14        -1.2892  -11.9662   -0.5468 H         1 <0>         0.1369
     43 H15        -3.8434   -9.3332    1.6733 H         1 <0>         0.1361
     44 H16        -4.2838   -3.3659    0.7588 H         1 <0>         0.0959
     45 H17        -4.8345   -4.7681   -0.1893 H         1 <0>         0.0787
     46 H18        -4.5536   -4.9319    1.5608 H         1 <0>         0.0810
     47 O4         -2.4908  -13.1228    1.3280 O.co2     1 <0>        -0.7494
@<TRIPOS>BOND
     1    1    2 1
     2    1   29 1
     3    1   30 1
     4    1   31 1
     5    2    3 1
     6    2    4 1
     7    2   32 1
     8    3   33 1
     9    3   34 1
    10    3   35 1
    11    4    5 1
    12    5   10 ar
    13    5    6 ar
    14    6    7 ar
    15    6   36 1
    16    7    8 ar
    17    7   37 1
    18    8    9 ar
    19    8   12 1
    20    9   10 ar
    21    9   38 1
    22   10   11 1
    23   12   13 2
    24   12   39 1
    25   13   27 1
    26   13   14 1
    27   14   15 2
    28   14   16 am
    29   16   17 1
    30   16   28 1
    31   17   18 2
    32   17   27 1
    33   18   19 1
    34   19   24 ar
    35   19   20 ar
    36   20   21 ar
    37   20   40 1
    38   21   22 ar
    39   21   41 1
    40   22   23 ar
    41   22   42 1
    42   23   24 ar
    43   23   25 1
    44   24   43 1
    45   25   26 2
    46   25   47 1
    47   28   44 1
    48   28   45 1
    49   28   46 1
@<TRIPOS>MOLECULE
ZINC28617427
   57    61     0     0     0
SMALL
USER_CHARGES
(2R,5Z)-3-[(2-chloro-6-methyl-3-quinolyl)methyleneamino]-5-[(4-methoxyphenyl)methylene]-2-phenyl-imidazolidin-4-one
@<TRIPOS>ATOM
      1 C1          1.3182   13.0496    0.6659 C.3       1 <0>        -0.1182
      2 C2          1.3016   11.6890    0.0182 C.ar      1 <0>        -0.0850
      3 C3          0.5791   11.4955   -1.1574 C.ar      1 <0>        -0.0943
      4 C4          0.5430   10.2794   -1.7682 C.ar      1 <0>        -0.0890
      5 C5          1.2433    9.1962   -1.2105 C.ar      1 <0>         0.1410
      6 C6          1.9783    9.3952   -0.0144 C.ar      1 <0>        -0.0974
      7 C7          1.9932   10.6645    0.5889 C.ar      1 <0>        -0.0920
      8 C8          2.6748    8.3132    0.5499 C.ar      1 <0>        -0.0225
      9 C9          2.6183    7.0878   -0.1051 C.ar      1 <0>        -0.0700
     10 C10         1.8657    6.9706   -1.2902 C.ar      1 <0>         0.2205
     11 N1          1.2205    7.9924   -1.7942 N.ar      1 <0>        -0.4714
     12 Cl1         1.7917    5.4370   -2.1003 Cl        1 <0>         0.0180
     13 C11         3.3345    5.9203    0.4390 C.2       1 <0>         0.0535
     14 N2          3.2735    4.7775   -0.1743 N.2       1 <0>        -0.1950
     15 N3          3.9544    3.6677    0.3430 N.am      1 <0>        -0.4700
     16 C12         3.9720    2.3244   -0.2437 C.3       1 <0>         0.3415
     17 H1          4.3944    2.3583   -1.2588 H         1 <0>         0.0704
     18 N4          4.8067    1.4891    0.6287 N.2       1 <0>        -0.6742
     19 C13         5.2501    2.3123    1.6702 C.2       1 <0>         0.1285
     20 C14         6.0484    1.9326    2.6957 C.2       1 <0>        -0.3089
     21 C15         6.6648    0.5981    2.6922 C.ar      1 <0>         0.0214
     22 C16         7.0229   -0.0132    3.8991 C.ar      1 <0>        -0.1283
     23 C17         7.5949   -1.2660    3.8905 C.ar      1 <0>        -0.1990
     24 C18         7.8276   -1.9180    2.6855 C.ar      1 <0>         0.0617
     25 C19         7.4788   -1.3133    1.4839 C.ar      1 <0>        -0.1433
     26 C20         6.9010   -0.0631    1.4815 C.ar      1 <0>        -0.0856
     27 O1          8.3975   -3.1507    2.6822 O.3       1 <0>        -0.3285
     28 C21         8.7313   -3.7145    3.9521 C.3       1 <0>         0.0311
     29 C22         4.7022    3.6560    1.4607 C.2       1 <0>         0.5062
     30 O2          4.8952    4.6140    2.1866 O.2       1 <0>        -0.5433
     31 C23         2.5720    1.7696   -0.3019 C.ar      1 <0>        -0.0790
     32 C24         1.4951    2.6245   -0.4439 C.ar      1 <0>        -0.1282
     33 C25         0.2110    2.1155   -0.4978 C.ar      1 <0>        -0.1348
     34 C26         0.0037    0.7518   -0.4078 C.ar      1 <0>        -0.1321
     35 C27         1.0805   -0.1030   -0.2639 C.ar      1 <0>        -0.1351
     36 C28         2.3646    0.4060   -0.2105 C.ar      1 <0>        -0.0783
     37 H2          0.7100   13.7465    0.0706 H         1 <0>         0.0673
     38 H3          2.3532   13.4184    0.7177 H         1 <0>         0.0725
     39 H4          0.9035   12.9770    1.6821 H         1 <0>         0.0725
     40 H5          0.0388   12.3239   -1.5912 H         1 <0>         0.1311
     41 H6         -0.0226   10.1474   -2.6788 H         1 <0>         0.1381
     42 H7          2.5497   10.8262    1.5002 H         1 <0>         0.1342
     43 H8          3.2401    8.4306    1.4626 H         1 <0>         0.1563
     44 H9          3.9207    6.0171    1.3647 H         1 <0>         0.1694
     45 H10         6.2357    2.6227    3.5315 H         1 <0>         0.0983
     46 H11         6.8469    0.4946    4.8359 H         1 <0>         0.1084
     47 H12         7.8675   -1.7406    4.8215 H         1 <0>         0.1086
     48 H13         7.6615   -1.8244    0.5502 H         1 <0>         0.1119
     49 H14         6.6303    0.4060    0.5472 H         1 <0>         0.1464
     50 H15         9.1820   -4.7072    3.8055 H         1 <0>         0.0889
     51 H16         7.8204   -3.8116    4.5610 H         1 <0>         0.0480
     52 H17         9.4485   -3.0587    4.4673 H         1 <0>         0.0477
     53 H18         1.6571    3.6900   -0.5145 H         1 <0>         0.1416
     54 H19        -0.6300    2.7830   -0.6147 H         1 <0>         0.1097
     55 H20        -0.9996    0.3542   -0.4495 H         1 <0>         0.1104
     56 H21         0.9185   -1.1684   -0.1928 H         1 <0>         0.1143
     57 H22         3.2059   -0.2618   -0.0977 H         1 <0>         0.1340
@<TRIPOS>BOND
     1    1    2 1
     2    1   37 1
     3    1   38 1
     4    1   39 1
     5    2    7 ar
     6    2    3 ar
     7    3    4 ar
     8    3   40 1
     9    4    5 ar
    10    4   41 1
    11    5   11 ar
    12    5    6 ar
    13    6    7 ar
    14    6    8 ar
    15    7   42 1
    16    8    9 ar
    17    8   43 1
    18    9   10 ar
    19    9   13 1
    20   10   11 ar
    21   10   12 1
    22   13   14 2
    23   13   44 1
    24   14   15 1
    25   15   29 am
    26   15   16 1
    27   16   17 1
    28   16   18 1
    29   16   31 1
    30   18   19 1
    31   19   20 2
    32   19   29 1
    33   20   21 1
    34   20   45 1
    35   21   26 ar
    36   21   22 ar
    37   22   23 ar
    38   22   46 1
    39   23   24 ar
    40   23   47 1
    41   24   25 ar
    42   24   27 1
    43   25   26 ar
    44   25   48 1
    45   26   49 1
    46   27   28 1
    47   28   50 1
    48   28   51 1
    49   28   52 1
    50   29   30 2
    51   31   36 ar
    52   31   32 ar
    53   32   33 ar
    54   32   53 1
    55   33   34 ar
    56   33   54 1
    57   34   35 ar
    58   34   55 1
    59   35   36 ar
    60   35   56 1
    61   36   57 1
@<TRIPOS>MOLECULE
ZINC33616973
   40    41     0     0     0
SMALL
USER_CHARGES
4-tert-butyl-N-(2,6-dibromo-4-nitro-phenyl)benzenesulfonamide
@<TRIPOS>ATOM
      1 C1          7.3260    3.4528    5.2204 C.3       1 <0>        -0.1390
      2 C2          5.8351    3.1792    5.0129 C.3       1 <0>        -0.0326
      3 C3          5.0756    4.5063    4.9592 C.3       1 <0>        -0.1455
      4 C4          5.3051    2.3350    6.1736 C.3       1 <0>        -0.1390
      5 C5          5.6365    2.4341    3.7181 C.ar      1 <0>        -0.0344
      6 C6          6.2315    1.2002    3.5325 C.ar      1 <0>        -0.1410
      7 C7          6.0493    0.5167    2.3449 C.ar      1 <0>        -0.0139
      8 C8          5.2715    1.0667    1.3432 C.ar      1 <0>        -0.6606
      9 C9          4.6805    2.3027    1.5269 C.ar      1 <0>        -0.0256
     10 C10         4.8591    2.9843    2.7163 C.ar      1 <0>        -0.1457
     11 S1          5.0393    0.1954   -0.1707 S.o2      1 <0>         2.6159
     12 O1          6.1677   -0.6539   -0.3276 O.2       1 <0>        -0.9865
     13 O2          4.6732    1.1635   -1.1444 O.2       1 <0>        -1.0013
     14 N1          3.7266   -0.7938    0.0301 N.2       1 <0>        -1.0789
     15 C11         2.4532   -0.2409    0.1933 C.ar      1 <0>         0.3361
     16 C12         1.8187    0.3746   -0.8787 C.ar      1 <0>        -0.1494
     17 C13         0.5595    0.9198   -0.7139 C.ar      1 <0>         0.0017
     18 C14        -0.0686    0.8538    0.5162 C.ar      1 <0>        -0.1070
     19 C15         0.5598    0.2420    1.5853 C.ar      1 <0>        -0.0007
     20 C16         1.8187   -0.3058    1.4277 C.ar      1 <0>        -0.1338
     21 Br1         2.6771   -1.1421    2.8905 Br        1 <0>        -0.0254
     22 N2         -1.4145    1.4448    0.6906 N.pl3     1 <0>         0.0517
     23 O3         -1.9673    1.9884   -0.2488 O.2       1 <0>        -0.1849
     24 O4         -1.9692    1.3874    1.7734 O.3       1 <0>        -0.1865
     25 Br2         2.6767    0.4656   -2.5614 Br        1 <0>         0.0034
     26 H1          7.8720    2.4986    5.2590 H         1 <0>         0.0580
     27 H2          7.4709    3.9967    6.1655 H         1 <0>         0.0573
     28 H3          7.7070    4.0598    4.3859 H         1 <0>         0.0564
     29 H4          4.0037    4.3095    4.8100 H         1 <0>         0.0605
     30 H5          5.4566    5.1133    4.1247 H         1 <0>         0.0589
     31 H6          5.2205    5.0502    5.9043 H         1 <0>         0.0567
     32 H7          4.2332    2.1383    6.0244 H         1 <0>         0.0588
     33 H8          5.4500    2.8789    7.1187 H         1 <0>         0.0568
     34 H9          5.8511    1.3808    6.2122 H         1 <0>         0.0577
     35 H10         6.8389    0.7703    4.3153 H         1 <0>         0.1192
     36 H11         6.5145   -0.4472    2.1997 H         1 <0>         0.1296
     37 H12         4.0764    2.7344    0.7426 H         1 <0>         0.1279
     38 H13         4.3940    3.9481    2.8614 H         1 <0>         0.1246
     39 H14         0.0657    1.3984   -1.5467 H         1 <0>         0.1506
     40 H15         0.0661    0.1922    2.5446 H         1 <0>         0.1498
@<TRIPOS>BOND
     1    1    2 1
     2    1   26 1
     3    1   27 1
     4    1   28 1
     5    2    3 1
     6    2    4 1
     7    2    5 1
     8    3   29 1
     9    3   30 1
    10    3   31 1
    11    4   32 1
    12    4   33 1
    13    4   34 1
    14    5   10 ar
    15    5    6 ar
    16    6    7 ar
    17    6   35 1
    18    7    8 ar
    19    7   36 1
    20    8    9 ar
    21    8   11 1
    22    9   10 ar
    23    9   37 1
    24   10   38 1
    25   11   12 2
    26   11   13 2
    27   11   14 1
    28   14   15 1
    29   15   20 ar
    30   15   16 ar
    31   16   17 ar
    32   16   25 1
    33   17   18 ar
    34   17   39 1
    35   18   19 ar
    36   18   22 1
    37   19   20 ar
    38   19   40 1
    39   20   21 1
    40   22   23 2
    41   22   24 1
@<TRIPOS>MOLECULE
ZINC36050507
   55    57     0     0     0
SMALL
USER_CHARGES

@<TRIPOS>ATOM
      1 C1         -2.9421   -2.7809   -2.9902 C.3       1 <0>        -0.1625
      2 C2         -3.3487   -1.3835   -2.5179 C.3       1 <0>         0.1307
      3 N1         -2.7692   -1.1266   -1.1971 N.pl3     1 <0>        -0.6390
      4 C3         -1.4443   -0.5115   -1.0856 C.3       1 <0>         0.1039
      5 C4         -3.4737   -1.4653   -0.0542 C.2       1 <0>         0.5011
      6 O1         -4.6994   -2.0343   -0.1574 O.3       1 <0>        -0.7009
      7 C5         -2.9409   -1.2291    1.1601 C.2       1 <0>        -0.4718
      8 C6         -3.7336   -1.4809    2.3721 C.2       1 <0>         0.2315
      9 C7         -4.9546   -2.0556    2.3026 C.2       1 <0>        -0.3027
     10 S1         -5.4333   -2.1127    4.0179 S.3       1 <0>         0.1307
     11 C8         -4.0648   -1.4112    4.6903 C.2       1 <0>         0.3372
     12 N2         -3.7463   -1.1429    5.9399 N.2       1 <0>        -0.5940
     13 C9         -2.6134   -0.5791    6.3257 C.2       1 <0>         0.3105
     14 C10        -1.6558   -0.2235    5.3953 C.2       1 <0>        -0.3948
     15 C11        -1.9511   -0.5010    3.9382 C.3       1 <0>         0.2638
     16 H1         -1.9004    0.4452    3.3994 H         1 <0>         0.0754
     17 N3         -3.2545   -1.1438    3.6224 N.pl3     1 <0>        -0.5115
     18 C12        -0.8593   -1.3926    3.4052 C.ar      1 <0>        -0.0642
     19 C13         0.0971   -0.8784    2.5497 C.ar      1 <0>        -0.0689
     20 C14         1.0986   -1.6960    2.0608 C.ar      1 <0>        -0.1221
     21 C15         1.1445   -3.0284    2.4270 C.ar      1 <0>        -0.1104
     22 C16         0.1890   -3.5436    3.2821 C.ar      1 <0>        -0.1185
     23 C17        -0.8106   -2.7242    3.7764 C.ar      1 <0>        -0.0121
     24 Cl1        -2.0074   -3.3691    4.8560 Cl        1 <0>        -0.0652
     25 C18        -0.4522    0.3744    5.7882 C.2       1 <0>         0.5363
     26 O2         -0.1894    0.4941    6.9723 O.2       1 <0>        -0.5507
     27 O3          0.4180    0.8186    4.8546 O.3       1 <0>        -0.3508
     28 C19         1.6724    1.3182    5.3225 C.3       1 <0>         0.0797
     29 C20         2.7151    0.1994    5.2794 C.3       1 <0>        -0.1640
     30 C21         2.1268    2.4736    4.4283 C.3       1 <0>        -0.1478
     31 C22        -2.3658   -0.3225    7.7899 C.3       1 <0>        -0.0924
     32 H2         -3.3733   -2.9720   -3.9729 H         1 <0>         0.0497
     33 H3         -1.8556   -2.8416   -3.0521 H         1 <0>         0.0428
     34 H4         -3.3079   -3.5245   -2.2821 H         1 <0>         0.0597
     35 H5         -2.9830   -0.6400   -3.2260 H         1 <0>         0.0500
     36 H6         -4.4352   -1.3228   -2.4560 H         1 <0>         0.0756
     37 H7         -1.5491    0.5728   -1.0490 H         1 <0>         0.0326
     38 H8         -0.9572   -0.8604   -0.1750 H         1 <0>         0.0659
     39 H9         -0.8408   -0.7893   -1.9498 H         1 <0>         0.0466
     40 H10        -1.9313   -0.8547    1.2432 H         1 <0>         0.0965
     41 H11        -5.4991   -2.3928    1.4330 H         1 <0>         0.2361
     42 H12         0.0616    0.1623    2.2630 H         1 <0>         0.1269
     43 H13         1.8454   -1.2939    1.3921 H         1 <0>         0.1225
     44 H14         1.9271   -3.6668    2.0443 H         1 <0>         0.1237
     45 H15         0.2248   -4.5845    3.5679 H         1 <0>         0.1246
     46 H16         1.5627    1.6733    6.3472 H         1 <0>         0.0800
     47 H17         2.3914   -0.6237    5.9164 H         1 <0>         0.0566
     48 H18         2.8248   -0.1557    4.2547 H         1 <0>         0.0627
     49 H19         3.6719    0.5804    5.6363 H         1 <0>         0.0642
     50 H20         1.4296    3.3056    4.5274 H         1 <0>         0.0594
     51 H21         3.1231    2.7965    4.7301 H         1 <0>         0.0694
     52 H22         2.1513    2.1417    3.3903 H         1 <0>         0.0643
     53 H23        -3.2234   -0.6651    8.3689 H         1 <0>         0.0630
     54 H24        -1.4738   -0.8624    8.1077 H         1 <0>         0.0880
     55 H25        -2.2211    0.7456    7.9523 H         1 <0>         0.0826
@<TRIPOS>BOND
     1    1    2 1
     2    1   32 1
     3    1   33 1
     4    1   34 1
     5    2    3 1
     6    2   35 1
     7    2   36 1
     8    3    4 1
     9    3    5 1
    10    4   37 1
    11    4   38 1
    12    4   39 1
    13    5    6 1
    14    5    7 2
    15    7    8 1
    16    7   40 1
    17    8   17 1
    18    8    9 2
    19    9   10 1
    20    9   41 1
    21   10   11 1
    22   11   17 1
    23   11   12 2
    24   12   13 1
    25   13   14 2
    26   13   31 1
    27   14   15 1
    28   14   25 1
    29   15   16 1
    30   15   17 1
    31   15   18 1
    32   18   23 ar
    33   18   19 ar
    34   19   20 ar
    35   19   42 1
    36   20   21 ar
    37   20   43 1
    38   21   22 ar
    39   21   44 1
    40   22   23 ar
    41   22   45 1
    42   23   24 1
    43   25   26 2
    44   25   27 1
    45   27   28 1
    46   28   29 1
    47   28   30 1
    48   28   46 1
    49   29   47 1
    50   29   48 1
    51   29   49 1
    52   30   50 1
    53   30   51 1
    54   30   52 1
    55   31   53 1
    56   31   54 1
    57   31   55 1
@<TRIPOS>MOLECULE
ZINC59250178
   57    60     0     0     0
SMALL
USER_CHARGES

@<TRIPOS>ATOM
      1 C1          0.0474   -5.7676    0.2955 C.3       1 <0>        -0.1549
      2 C2          1.1127   -4.8048    0.8237 C.3       1 <0>         0.0083
      3 H1          1.4139   -5.1105    1.8257 H         1 <0>         0.0704
      4 C3          2.3105   -4.8304   -0.0905 C.2       1 <0>         0.5060
      5 O1          2.6177   -3.8330   -0.7208 O.co2     1 <0>        -0.6706
      6 O2          2.9723   -5.8485   -0.1998 O.co2     1 <0>        -0.6841
      7 O3          0.5772   -3.4808    0.8703 O.3       1 <0>        -0.2732
      8 C4         -0.1541   -3.1498    1.9654 C.ar      1 <0>         0.1772
      9 C5         -0.2769   -4.0530    3.0149 C.ar      1 <0>        -0.2284
     10 C6         -1.0176   -3.7229    4.1275 C.ar      1 <0>         0.0039
     11 C7         -1.6476   -2.4744    4.2008 C.ar      1 <0>        -0.1639
     12 C8         -1.5201   -1.5683    3.1407 C.ar      1 <0>        -0.0389
     13 C9         -0.7727   -1.9070    2.0352 C.ar      1 <0>        -0.1764
     14 C10        -2.4394   -2.1168    5.3847 C.2       1 <0>         0.1001
     15 C11        -1.9798   -2.4200    6.6254 C.2       1 <0>        -0.2510
     16 C12        -0.6616   -2.9419    7.0337 C.2       1 <0>         0.5422
     17 O4          0.2134   -3.1681    6.2185 O.2       1 <0>        -0.4582
     18 N1         -0.4739   -3.1524    8.3256 N.am      1 <0>        -0.5716
     19 C13        -1.4769   -2.8897    9.2330 C.2       1 <0>         0.4014
     20 N2         -1.4578   -3.0401   10.5385 N.2       1 <0>        -0.4847
     21 C14        -0.2646   -3.1785   11.1938 C.ar      1 <0>         0.1135
     22 C15         0.6540   -2.1263   11.2086 C.ar      1 <0>        -0.1443
     23 C16         1.8547   -2.2726   11.8716 C.ar      1 <0>        -0.0943
     24 C17         2.1501   -3.4583   12.5210 C.ar      1 <0>        -0.1328
     25 C18         1.2448   -4.5048   12.5105 C.ar      1 <0>        -0.0991
     26 C19         0.0381   -4.3705   11.8560 C.ar      1 <0>        -0.1322
     27 S1         -2.8060   -2.2869    8.2044 S.3       1 <0>         0.0596
     28 C20         0.8129   -3.6705    8.7967 C.3       1 <0>         0.1066
     29 C21         1.1129   -4.9999    8.1012 C.3       1 <0>        -0.1359
     30 C22         2.4569   -5.5409    8.5932 C.3       1 <0>        -0.1100
     31 C23         3.5620   -4.5342    8.2674 C.3       1 <0>        -0.1225
     32 C24         3.2620   -3.2048    8.9629 C.3       1 <0>        -0.1133
     33 C25         1.9181   -2.6637    8.4709 C.3       1 <0>        -0.1307
     34 H2         -0.2538   -5.4619   -0.7065 H         1 <0>         0.0605
     35 H3          0.4558   -6.7775    0.2599 H         1 <0>         0.0746
     36 H4         -0.8190   -5.7491    0.9567 H         1 <0>         0.0475
     37 H5          0.2095   -5.0156    2.9573 H         1 <0>         0.1323
     38 H6         -1.1128   -4.4256    4.9420 H         1 <0>         0.1161
     39 H7         -2.0042   -0.6042    3.1919 H         1 <0>         0.1293
     40 H8         -0.6701   -1.2072    1.2190 H         1 <0>         0.1338
     41 H9         -3.3873   -1.6127    5.2683 H         1 <0>         0.1494
     42 H10         0.4248   -1.2005   10.7018 H         1 <0>         0.1213
     43 H11         2.5660   -1.4601   11.8835 H         1 <0>         0.1263
     44 H12         3.0919   -3.5675   13.0382 H         1 <0>         0.1248
     45 H13         1.4821   -5.4275   13.0192 H         1 <0>         0.1273
     46 H14        -0.6692   -5.1866   11.8521 H         1 <0>         0.1270
     47 H15         0.7694   -3.8260    9.8746 H         1 <0>         0.1241
     48 H16         0.3256   -5.7171    8.3333 H         1 <0>         0.0582
     49 H17         1.1565   -4.8443    7.0233 H         1 <0>         0.0917
     50 H18         2.4133   -5.6965    9.6711 H         1 <0>         0.0598
     51 H19         2.6706   -6.4880    8.0977 H         1 <0>         0.0681
     52 H20         4.5194   -4.9196    8.6179 H         1 <0>         0.0639
     53 H21         3.6056   -4.3786    7.1895 H         1 <0>         0.0678
     54 H22         3.2184   -3.3603   10.0408 H         1 <0>         0.0658
     55 H23         4.0493   -2.4876    8.7308 H         1 <0>         0.0663
     56 H24         1.9616   -2.5082    7.3930 H         1 <0>         0.0847
     57 H25         1.7043   -1.7167    8.9664 H         1 <0>         0.0609
@<TRIPOS>BOND
     1    1    2 1
     2    1   34 1
     3    1   35 1
     4    1   36 1
     5    2    3 1
     6    2    4 1
     7    2    7 1
     8    4    5 2
     9    4    6 1
    10    7    8 1
    11    8   13 ar
    12    8    9 ar
    13    9   10 ar
    14    9   37 1
    15   10   11 ar
    16   10   38 1
    17   11   12 ar
    18   11   14 1
    19   12   13 ar
    20   12   39 1
    21   13   40 1
    22   14   15 2
    23   14   41 1
    24   15   27 1
    25   15   16 1
    26   16   17 2
    27   16   18 am
    28   18   19 1
    29   18   28 1
    30   19   20 2
    31   19   27 1
    32   20   21 1
    33   21   26 ar
    34   21   22 ar
    35   22   23 ar
    36   22   42 1
    37   23   24 ar
    38   23   43 1
    39   24   25 ar
    40   24   44 1
    41   25   26 ar
    42   25   45 1
    43   26   46 1
    44   28   33 1
    45   28   29 1
    46   28   47 1
    47   29   30 1
    48   29   48 1
    49   29   49 1
    50   30   31 1
    51   30   50 1
    52   30   51 1
    53   31   32 1
    54   31   52 1
    55   31   53 1
    56   32   33 1
    57   32   54 1
    58   32   55 1
    59   33   56 1
    60   33   57 1
@<TRIPOS>MOLECULE
ZINC03849766
   53    56     0     0     0
SMALL
USER_CHARGES
2-(10,13-dimethyl-17-oxo-1,4,5,6,7,8,9,11,12,14,15,16-dodecahydrocyclopenta[a]phenanthren-3-yl)acetic acid
@<TRIPOS>ATOM
      1 C1          8.5509   -2.8306    0.5398 C.3       1 <0>        -0.1407
      2 C2          7.5592   -3.6125   -0.3241 C.3       1 <0>        -0.1114
      3 C3          7.5492   -3.0883   -1.7368 C.3       1 <0>        -0.1001
      4 C4          6.4946   -1.9858   -1.9144 C.3       1 <0>        -0.1090
      5 C5          6.1896   -1.3009   -0.5926 C.3       1 <0>        -0.0703
      6 H1          7.1196   -0.9397   -0.1460 H         1 <0>         0.0737
      7 C6          5.5102   -2.2850    0.3650 C.3       1 <0>        -0.0756
      8 H2          4.4587   -2.3987    0.0311 H         1 <0>         0.0773
      9 C7          6.1419   -3.6371    0.2815 C.3       1 <0>        -0.0675
     10 H3          5.4994   -4.2862   -0.3544 H         1 <0>         0.0709
     11 C8          6.3881   -4.3890    1.5990 C.3       1 <0>        -0.1124
     12 C9          7.3870   -5.4982    1.1643 C.3       1 <0>        -0.1776
     13 C10         7.9397   -5.0790   -0.1934 C.2       1 <0>         0.3745
     14 O1          8.5404   -5.7419   -0.9930 O.2       1 <0>        -0.4381
     15 C11         5.4801   -1.6672    1.7576 C.3       1 <0>        -0.1057
     16 C12         4.6734   -0.3639    1.6797 C.3       1 <0>        -0.1147
     17 C13         4.1476   -0.1463    0.2627 C.3       1 <0>        -0.0710
     18 H4          3.4815   -0.9777   -0.0056 H         1 <0>         0.0750
     19 C14         5.2918   -0.0730   -0.7526 C.3       1 <0>        -0.0443
     20 C15         4.6822   -0.0518   -2.1573 C.3       1 <0>        -0.0669
     21 C16         3.6417    1.0284   -2.2404 C.2       1 <0>        -0.1890
     22 C17         3.0557    1.5472   -1.2084 C.2       1 <0>        -0.0638
     23 C18         3.3305    1.1465    0.2102 C.3       1 <0>        -0.0739
     24 C19         2.0311    2.6263   -1.4506 C.3       1 <0>        -0.1367
     25 C20         0.6553    2.0125   -1.4918 C.2       1 <0>         0.4647
     26 O2          0.5204    0.8214   -1.3402 O.co2     1 <0>        -0.6323
     27 C21         6.1313    1.1905   -0.5368 C.3       1 <0>        -0.1375
     28 H5          8.7105   -3.3599    1.4792 H         1 <0>         0.0584
     29 H6          9.4989   -2.7367    0.0101 H         1 <0>         0.0578
     30 H7          8.1498   -1.8382    0.7456 H         1 <0>         0.0797
     31 H8          8.5399   -2.6904   -1.9904 H         1 <0>         0.0632
     32 H9          7.3325   -3.9109   -2.4320 H         1 <0>         0.0620
     33 H10         6.8690   -1.2469   -2.6316 H         1 <0>         0.0662
     34 H11         5.5791   -2.4255   -2.3217 H         1 <0>         0.0649
     35 H12         6.8193   -3.7452    2.3589 H         1 <0>         0.0811
     36 H13         5.4598   -4.8362    1.9619 H         1 <0>         0.0743
     37 H14         8.1162   -5.5752    1.8443 H         1 <0>         0.0896
     38 H15         6.8659   -6.4514    1.0765 H         1 <0>         0.0901
     39 H16         6.4923   -1.4416    2.0904 H         1 <0>         0.0597
     40 H17         5.0017   -2.3477    2.4598 H         1 <0>         0.0621
     41 H18         5.3017    0.4695    1.9848 H         1 <0>         0.0609
     42 H19         3.8266   -0.4377    2.3687 H         1 <0>         0.0591
     43 H20         4.2152   -1.0124   -2.3687 H         1 <0>         0.0672
     44 H21         5.4623    0.1485   -2.8906 H         1 <0>         0.0621
     45 H22         3.3693    1.3941   -3.2181 H         1 <0>         0.0924
     46 H23         3.8511    1.9467    0.7287 H         1 <0>         0.0638
     47 H24         2.3715    0.9757    0.7132 H         1 <0>         0.0716
     48 H25         2.2385    3.1174   -2.4013 H         1 <0>         0.0678
     49 H26         2.0780    3.3592   -0.6452 H         1 <0>         0.0666
     50 H27         5.4971    2.0706   -0.6429 H         1 <0>         0.0619
     51 H28         6.5639    1.1729    0.4635 H         1 <0>         0.0499
     52 H29         6.9301    1.2269   -1.2775 H         1 <0>         0.0485
     53 O3         -0.4196    2.7883   -1.7026 O.co2     1 <0>        -0.7783
@<TRIPOS>BOND
     1    1    2 1
     2    1   28 1
     3    1   29 1
     4    1   30 1
     5    2    9 1
     6    2   13 1
     7    2    3 1
     8    3    4 1
     9    3   31 1
    10    3   32 1
    11    4    5 1
    12    4   33 1
    13    4   34 1
    14    5    6 1
    15    5   19 1
    16    5    7 1
    17    7    8 1
    18    7    9 1
    19    7   15 1
    20    9   10 1
    21    9   11 1
    22   11   12 1
    23   11   35 1
    24   11   36 1
    25   12   13 1
    26   12   37 1
    27   12   38 1
    28   13   14 2
    29   15   16 1
    30   15   39 1
    31   15   40 1
    32   16   17 1
    33   16   41 1
    34   16   42 1
    35   17   18 1
    36   17   23 1
    37   17   19 1
    38   19   20 1
    39   19   27 1
    40   20   21 1
    41   20   43 1
    42   20   44 1
    43   21   22 2
    44   21   45 1
    45   22   23 1
    46   22   24 1
    47   23   46 1
    48   23   47 1
    49   24   25 1
    50   24   48 1
    51   24   49 1
    52   25   26 2
    53   25   53 1
    54   27   50 1
    55   27   51 1
    56   27   52 1
@<TRIPOS>MOLECULE
ZINC06923191
   30    32     0     0     0
SMALL
USER_CHARGES
2-[(Z)-1-chloro-2-(3-thienyl)vinyl]-7-(trifluoromethyl)-3H-quinazolin-4-one
@<TRIPOS>ATOM
      1 C1         -1.1532    3.0346    1.2723 C.ar      1 <0>        -0.1547
      2 C2          0.0054    3.7774    1.1974 C.ar      1 <0>        -0.0313
      3 C3          1.2137    3.1363    0.9322 C.ar      1 <0>        -0.2368
      4 C4          1.2421    1.7347    0.7426 C.ar      1 <0>         0.2003
      5 C5          0.0492    1.0092    0.8249 C.ar      1 <0>        -0.0919
      6 C6         -1.1249    1.6594    1.0804 C.ar      1 <0>        -0.1477
      7 C7         -2.4073    0.8720    1.1614 C.3       1 <0>         0.5089
      8 F1         -2.6172    0.4571    2.4809 F         1 <0>        -0.1806
      9 F2         -3.4753    1.6765    0.7500 F         1 <0>        -0.1805
     10 F3         -2.3197   -0.2487    0.3285 F         1 <0>        -0.1799
     11 N1          2.4169    1.1292    0.4866 N.ar      1 <0>        -0.6150
     12 C8          3.5396    1.8078    0.4078 C.ar      1 <0>         0.4041
     13 N2          3.6025    3.1683    0.5787 N.ar      1 <0>        -0.6552
     14 C9          2.4798    3.8773    0.8405 C.ar      1 <0>         0.5154
     15 O1          2.5173    5.0841    0.9949 O.3       1 <0>        -0.5727
     16 C10         4.7770    1.0812    0.1259 C.2       1 <0>         0.0029
     17 C11         4.7491   -0.2584   -0.0475 C.2       1 <0>        -0.0492
     18 C12         6.0056   -1.0088   -0.1754 C.2       1 <0>        -0.1133
     19 C13         6.0674   -2.2574   -0.8936 C.2       1 <0>        -0.1270
     20 C14         7.2674   -2.8678   -0.9600 C.2       1 <0>        -0.1994
     21 S1          8.3295   -1.7721   -0.0415 S.3       1 <0>         0.0690
     22 C15         7.1788   -0.5528    0.3915 C.2       1 <0>        -0.1797
     23 Cl1         6.2816    1.9398    0.0141 Cl        1 <0>        -0.0530
     24 H1         -2.0922    3.5270    1.4780 H         1 <0>         0.1242
     25 H2         -0.0232    4.8472    1.3428 H         1 <0>         0.1303
     26 H3          0.0555   -0.0614    0.6824 H         1 <0>         0.1332
     27 H4          3.7856   -0.7872   -0.0929 H         1 <0>         0.1614
     28 H5          5.1918   -2.6827   -1.3614 H         1 <0>         0.1404
     29 H6          7.5217   -3.7975   -1.4471 H         1 <0>         0.1824
     30 H7          7.3401    0.3473    0.9661 H         1 <0>         0.1954
@<TRIPOS>BOND
     1    1    6 ar
     2    1    2 ar
     3    1   24 1
     4    2    3 ar
     5    2   25 1
     6    3   14 ar
     7    3    4 ar
     8    4    5 ar
     9    4   11 ar
    10    5    6 ar
    11    5   26 1
    12    6    7 1
    13    7    8 1
    14    7    9 1
    15    7   10 1
    16   11   12 ar
    17   12   13 ar
    18   12   16 1
    19   13   14 ar
    20   14   15 1
    21   16   17 2
    22   16   23 1
    23   17   18 1
    24   17   27 1
    25   18   22 2
    26   18   19 1
    27   19   20 2
    28   19   28 1
    29   20   21 1
    30   20   29 1
    31   21   22 1
    32   22   30 1
@<TRIPOS>MOLECULE
ZINC05687776
   31    33     0     0     0
SMALL
USER_CHARGES

@<TRIPOS>ATOM
      1 C1         -0.1653    1.4960   -0.2403 C.3       1 <0>        -0.1107
      2 C2         -0.1124   -0.0094   -0.1933 C.ar      1 <0>        -0.0868
      3 C3         -0.2496   -0.7413   -1.3584 C.ar      1 <0>        -0.1104
      4 C4         -0.2012   -2.1211   -1.3185 C.ar      1 <0>        -0.0829
      5 C5         -0.0145   -2.7730   -0.1071 C.ar      1 <0>         0.1488
      6 C6          0.1230   -2.0354    1.0610 C.ar      1 <0>        -0.1034
      7 C7          0.0789   -0.6557    1.0141 C.ar      1 <0>        -0.1120
      8 N1          0.0347   -4.1733   -0.0633 N.pl3     1 <0>        -0.4487
      9 C8         -0.8794   -5.0211    0.5231 C.2       1 <0>         0.1380
     10 N2         -0.4473   -6.2458    0.3300 N.2       1 <0>        -0.2469
     11 N3          0.6571   -6.2243   -0.3266 N.2       1 <0>        -0.3372
     12 C9          0.9975   -4.9846   -0.5992 C.2       1 <0>         0.3877
     13 S1          2.4287   -4.4642   -1.4856 S.3       1 <0>        -0.7861
     14 C10        -2.1129   -4.6267    1.2353 C.ar      1 <0>         0.0353
     15 C11        -2.9847   -3.6973    0.6651 C.ar      1 <0>        -0.0782
     16 C12        -4.1342   -3.3330    1.3344 C.ar      1 <0>        -0.1022
     17 C13        -4.4249   -3.8866    2.5703 C.ar      1 <0>        -0.0254
     18 C14        -3.5650   -4.8088    3.1418 C.ar      1 <0>        -0.1033
     19 C15        -2.4141   -5.1865    2.4791 C.ar      1 <0>        -0.0015
     20 Cl1        -1.3401   -6.3484    3.1934 Cl        1 <0>        -0.0333
     21 Cl2        -5.8734   -3.4216    3.4065 Cl        1 <0>        -0.0646
     22 H1          0.8390    1.8901   -0.3961 H         1 <0>         0.0698
     23 H2         -0.8106    1.8114   -1.0601 H         1 <0>         0.0650
     24 H3         -0.5624    1.8752    0.7013 H         1 <0>         0.0643
     25 H4         -0.3952   -0.2337   -2.3004 H         1 <0>         0.1264
     26 H5         -0.3088   -2.6923   -2.2287 H         1 <0>         0.1268
     27 H6          0.2683   -2.5398    2.0049 H         1 <0>         0.1205
     28 H7          0.1899   -0.0812    1.9219 H         1 <0>         0.1250
     29 H8         -2.7592   -3.2641   -0.2982 H         1 <0>         0.1385
     30 H9         -4.8091   -2.6141    0.8940 H         1 <0>         0.1413
     31 H10        -3.7970   -5.2367    4.1059 H         1 <0>         0.1460
@<TRIPOS>BOND
     1    1    2 1
     2    1   22 1
     3    1   23 1
     4    1   24 1
     5    2    7 ar
     6    2    3 ar
     7    3    4 ar
     8    3   25 1
     9    4    5 ar
    10    4   26 1
    11    5    6 ar
    12    5    8 1
    13    6    7 ar
    14    6   27 1
    15    7   28 1
    16    8   12 1
    17    8    9 1
    18    9   10 2
    19    9   14 1
    20   10   11 1
    21   11   12 2
    22   12   13 1
    23   14   19 ar
    24   14   15 ar
    25   15   16 ar
    26   15   29 1
    27   16   17 ar
    28   16   30 1
    29   17   18 ar
    30   17   21 1
    31   18   19 ar
    32   18   31 1
    33   19   20 1
@<TRIPOS>MOLECULE
ZINC41987778
   33    34     0     0     0
SMALL
USER_CHARGES

@<TRIPOS>ATOM
      1 C1          1.7744   -2.7128   -2.9508 C.3       1 <0>        -0.1385
      2 C2          0.8819   -1.4762   -3.0732 C.3       1 <0>        -0.0831
      3 C3         -0.5054   -1.8950   -3.5638 C.3       1 <0>        -0.1282
      4 S1          0.7337   -0.6746   -1.4526 S.3       1 <0>        -0.2118
      5 C4          2.3785    0.0325   -1.1607 C.3       1 <0>        -0.0248
      6 C5          3.0326   -0.6721    0.0295 C.3       1 <0>        -0.1092
      7 C6          3.2320   -0.1576   -2.3880 C.2       1 <0>         0.0458
      8 C7          4.4724    0.3254   -2.5421 C.2       1 <0>        -0.1695
      9 C8          4.9140   -0.0992   -3.8760 C.ar      1 <0>        -0.1152
     10 C9          6.0813    0.0771   -4.6178 C.ar      1 <0>        -0.0400
     11 C10         6.1750   -0.4694   -5.8793 C.ar      1 <0>        -0.1111
     12 C11         5.1139   -1.1909   -6.4097 C.ar      1 <0>        -0.0813
     13 C12         3.9551   -1.3718   -5.6861 C.ar      1 <0>        -0.0974
     14 C13         3.8405   -0.8295   -4.4122 C.ar      1 <0>         0.0323
     15 O1          2.8616   -0.8412   -3.4848 O.3       1 <0>        -0.1519
     16 Br1         7.7546   -0.2353   -6.8922 Br        1 <0>        -0.0570
     17 C14         2.2471    1.5040   -0.8631 C.2       1 <0>         0.5161
     18 O2          1.1420    2.0086   -0.7593 O.co2     1 <0>        -0.6491
     19 O3          3.2457    2.1898   -0.7262 O.co2     1 <0>        -0.6714
     20 H1          2.7855   -2.4061   -2.6828 H         1 <0>         0.0684
     21 H2          1.3780   -3.3720   -2.1785 H         1 <0>         0.0523
     22 H3          1.7957   -3.2413   -3.9038 H         1 <0>         0.0508
     23 H4          1.3235   -0.7784   -3.7846 H         1 <0>         0.1221
     24 H5         -0.9470   -2.5928   -2.8523 H         1 <0>         0.0578
     25 H6         -1.1413   -1.0140   -3.6510 H         1 <0>         0.0630
     26 H7         -0.4164   -2.3767   -4.5376 H         1 <0>         0.0607
     27 H8          3.1276   -1.7364   -0.1857 H         1 <0>         0.0536
     28 H9          4.0209   -0.2472    0.2050 H         1 <0>         0.0702
     29 H10         2.4152   -0.5346    0.9173 H         1 <0>         0.0686
     30 H11         5.0340    0.9099   -1.8285 H         1 <0>         0.1687
     31 H12         6.9069    0.6387   -4.2063 H         1 <0>         0.1353
     32 H13         5.1975   -1.6144   -7.3996 H         1 <0>         0.1383
     33 H14         3.1363   -1.9347   -6.1093 H         1 <0>         0.1354
@<TRIPOS>BOND
     1    1    2 1
     2    1   20 1
     3    1   21 1
     4    1   22 1
     5    2    3 1
     6    2    4 1
     7    2   23 1
     8    3   24 1
     9    3   25 1
    10    3   26 1
    11    4    5 1
    12    5    6 1
    13    5    7 1
    14    5   17 1
    15    6   27 1
    16    6   28 1
    17    6   29 1
    18    7   15 1
    19    7    8 2
    20    8    9 1
    21    8   30 1
    22    9   14 ar
    23    9   10 ar
    24   10   11 ar
    25   10   31 1
    26   11   12 ar
    27   11   16 1
    28   12   13 ar
    29   12   32 1
    30   13   14 ar
    31   13   33 1
    32   14   15 1
    33   17   18 2
    34   17   19 1
@<TRIPOS>MOLECULE
ZINC25365317
   32    33     0     0     0
SMALL
USER_CHARGES

@<TRIPOS>ATOM
      1 C1         -0.0184    1.5028    0.0103 C.3       1 <0>        -0.1159
      2 C2          0.0021   -0.0041    0.0020 C.ar      1 <0>        -0.0405
      3 C3          0.0057   -0.6887   -1.1992 C.ar      1 <0>        -0.1455
      4 C4          0.0245   -2.0707   -1.2077 C.ar      1 <0>        -0.0168
      5 C5          0.0391   -2.7693   -0.0149 C.ar      1 <0>        -0.6215
      6 C6          0.0355   -2.0849    1.1873 C.ar      1 <0>         0.0639
      7 C7          0.0229   -0.7012    1.1950 C.ar      1 <0>        -0.1410
      8 Cl1         0.0539   -2.9615    2.6856 Cl        1 <0>        -0.0320
      9 S1          0.0618   -4.5311   -0.0258 S.o2      1 <0>         2.6027
     10 O1         -0.9541   -4.9559    0.8724 O.2       1 <0>        -1.0121
     11 O2          0.0876   -4.9285   -1.3899 O.2       1 <0>        -1.0287
     12 N1          1.5050   -5.0063    0.6330 N.2       1 <0>        -1.0772
     13 C8          1.8036   -6.3653    0.7540 C.ar      1 <0>         0.2820
     14 C9          0.8935   -7.3198    0.3170 C.ar      1 <0>        -0.2388
     15 C10         1.1922   -8.6625    0.4377 C.ar      1 <0>        -0.0652
     16 C11         2.3955   -9.0577    0.9933 C.ar      1 <0>        -0.1862
     17 C12         3.3033   -8.1104    1.4297 C.ar      1 <0>        -0.1421
     18 C13         3.0135   -6.7656    1.3063 C.ar      1 <0>        -0.1322
     19 C14         4.6127   -8.5458    2.0354 C.3       1 <0>         0.5086
     20 F1          4.6791   -9.9431    2.0479 F         1 <0>        -0.1850
     21 F2          5.6706   -8.0355    1.2753 F         1 <0>        -0.1829
     22 F3          4.7041   -8.0628    3.3452 F         1 <0>        -0.1827
     23 H1          1.0042    1.8801    0.0026 H         1 <0>         0.0765
     24 H2         -0.5455    1.8639   -0.8728 H         1 <0>         0.0707
     25 H3         -0.5286    1.8543    0.9071 H         1 <0>         0.0700
     26 H4         -0.0064   -0.1433   -2.1314 H         1 <0>         0.1319
     27 H5          0.0273   -2.6049   -2.1463 H         1 <0>         0.1465
     28 H6          0.0245   -0.1663    2.1332 H         1 <0>         0.1359
     29 H7         -0.0466   -7.0119   -0.1164 H         1 <0>         0.1040
     30 H8          0.4852   -9.4050    0.0981 H         1 <0>         0.1138
     31 H9          2.6264  -10.1085    1.0869 H         1 <0>         0.1173
     32 H10         3.7251   -6.0261    1.6429 H         1 <0>         0.1227
@<TRIPOS>BOND
     1    1    2 1
     2    1   23 1
     3    1   24 1
     4    1   25 1
     5    2    7 ar
     6    2    3 ar
     7    3    4 ar
     8    3   26 1
     9    4    5 ar
    10    4   27 1
    11    5    6 ar
    12    5    9 1
    13    6    7 ar
    14    6    8 1
    15    7   28 1
    16    9   10 2
    17    9   11 2
    18    9   12 1
    19   12   13 1
    20   13   18 ar
    21   13   14 ar
    22   14   15 ar
    23   14   29 1
    24   15   16 ar
    25   15   30 1
    26   16   17 ar
    27   16   31 1
    28   17   18 ar
    29   17   19 1
    30   18   32 1
    31   19   20 1
    32   19   21 1
    33   19   22 1
@<TRIPOS>MOLECULE
ZINC11797550
   33    33     0     0     0
SMALL
USER_CHARGES
3-(2-bromo-4,6-dimethyl-phenoxy)-2,2-dimethyl-propanoic acid
@<TRIPOS>ATOM
      1 C1          1.5255    0.0375    6.1419 C.3       1 <0>        -0.1091
      2 C2          0.9351    0.4407    4.8153 C.ar      1 <0>        -0.0949
      3 C3          1.3433    1.6129    4.2059 C.ar      1 <0>        -0.0960
      4 C4          0.8035    1.9853    2.9900 C.ar      1 <0>        -0.0955
      5 C5         -0.1487    1.1821    2.3798 C.ar      1 <0>         0.1319
      6 C6         -0.5605    0.0083    2.9954 C.ar      1 <0>        -0.1070
      7 C7         -0.0133   -0.3623    4.2096 C.ar      1 <0>        -0.0881
      8 Br1        -1.8635   -1.0863    2.1709 Br        1 <0>        -0.0380
      9 O1         -0.6816    1.5467    1.1837 O.3       1 <0>        -0.3273
     10 C8         -0.0127    1.0858    0.0080 C.3       1 <0>         0.0992
     11 C9         -0.7527    1.5927   -1.2315 C.3       1 <0>        -0.1021
     12 C10        -2.1881    1.0631   -1.2207 C.3       1 <0>        -0.1149
     13 C11        -0.7734    3.1225   -1.2231 C.3       1 <0>        -0.1174
     14 C12        -0.0473    1.1066   -2.4714 C.2       1 <0>         0.4771
     15 O2          0.9454    0.4249   -2.3737 O.co2     1 <0>        -0.6414
     16 C13         1.2491    3.2631    2.3268 C.3       1 <0>        -0.1123
     17 H1          0.9227    0.4532    6.9493 H         1 <0>         0.0702
     18 H2          1.5365   -1.0497    6.2194 H         1 <0>         0.0666
     19 H3          2.5445    0.4174    6.2166 H         1 <0>         0.0672
     20 H4          2.0846    2.2382    4.6811 H         1 <0>         0.1291
     21 H5         -0.3299   -1.2777    4.6872 H         1 <0>         0.1318
     22 H6          0.0021   -0.0041    0.0020 H         1 <0>         0.0564
     23 H7          1.0099    1.4631    0.0003 H         1 <0>         0.0524
     24 H8         -2.6983    1.4146   -0.3239 H         1 <0>         0.0510
     25 H9         -2.7153    1.4241   -2.1037 H         1 <0>         0.0577
     26 H10        -2.1733   -0.0268   -1.2266 H         1 <0>         0.0429
     27 H11         0.2491    3.4998   -1.2308 H         1 <0>         0.0419
     28 H12        -1.3006    3.4836   -2.1062 H         1 <0>         0.0599
     29 H13        -1.2836    3.4740   -0.3263 H         1 <0>         0.0503
     30 H14         0.6114    4.0841    2.6545 H         1 <0>         0.0738
     31 H15         2.2826    3.4738    2.6017 H         1 <0>         0.0661
     32 H16         1.1756    3.1555    1.2446 H         1 <0>         0.0765
     33 O3         -0.5219    1.4312   -3.6843 O.co2     1 <0>        -0.7580
@<TRIPOS>BOND
     1    1    2 1
     2    1   17 1
     3    1   18 1
     4    1   19 1
     5    2    7 ar
     6    2    3 ar
     7    3    4 ar
     8    3   20 1
     9    4    5 ar
    10    4   16 1
    11    5    6 ar
    12    5    9 1
    13    6    7 ar
    14    6    8 1
    15    7   21 1
    16    9   10 1
    17   10   11 1
    18   10   22 1
    19   10   23 1
    20   11   12 1
    21   11   13 1
    22   11   14 1
    23   12   24 1
    24   12   25 1
    25   12   26 1
    26   13   27 1
    27   13   28 1
    28   13   29 1
    29   14   15 2
    30   14   33 1
    31   16   30 1
    32   16   31 1
    33   16   32 1
@<TRIPOS>MOLECULE
ZINC35697841
   33    35     0     0     0
SMALL
USER_CHARGES

@<TRIPOS>ATOM
      1 C1         -0.0187    1.5258    0.0104 C.3       1 <0>        -0.1401
      2 C2          0.0021   -0.0041    0.0020 C.3       1 <0>        -0.0532
      3 C3          0.7421   -0.5109    1.2415 C.3       1 <0>        -0.1398
      4 C4         -1.4117   -0.5257    0.0127 C.ar      1 <0>        -0.0407
      5 C5         -2.2591   -0.2050    1.0554 C.ar      1 <0>        -0.1125
      6 C6         -3.5564   -0.6832    1.0659 C.ar      1 <0>        -0.1152
      7 C7         -4.0098   -1.4838    0.0333 C.ar      1 <0>        -0.1185
      8 C8         -3.1675   -1.8084   -1.0116 C.ar      1 <0>        -0.0863
      9 C9         -1.8657   -1.3245   -1.0283 C.ar      1 <0>         0.1652
     10 N1         -1.0110   -1.6463   -2.0899 N.pl3     1 <0>        -0.4527
     11 C10        -0.2325   -2.7723   -2.0341 C.2       1 <0>         0.5268
     12 O1         -0.2740   -3.5897   -0.9607 O.3       1 <0>        -0.6138
     13 C11         0.5886   -3.0481   -3.0950 C.2       1 <0>        -0.3425
     14 C12         0.6441   -2.2001   -4.2308 C.2       1 <0>         0.2148
     15 C13         1.5293   -2.6079   -5.2388 C.2       1 <0>        -0.1617
     16 C14         2.2555   -3.7360   -5.0912 C.2       1 <0>        -0.1271
     17 S1          1.7456   -4.3335   -3.4884 S.3       1 <0>         0.0966
     18 N2         -0.1600   -1.1076   -4.2008 N.2       1 <0>        -0.5392
     19 C15        -0.9505   -0.8562   -3.1763 C.2       1 <0>         0.5102
     20 S2         -1.9373    0.5419   -3.2277 S.2       1 <0>        -0.6941
     21 H1          1.0039    1.9031    0.0027 H         1 <0>         0.0500
     22 H2         -0.5459    1.8868   -0.8726 H         1 <0>         0.0729
     23 H3         -0.5289    1.8773    0.9072 H         1 <0>         0.0521
     24 H4          0.5123   -0.3556   -0.8948 H         1 <0>         0.0641
     25 H5          0.2319   -0.1594    2.1383 H         1 <0>         0.0551
     26 H6          0.7568   -1.6008    1.2356 H         1 <0>         0.0583
     27 H7          1.7647   -0.1336    1.2338 H         1 <0>         0.0533
     28 H8         -1.9079    0.4197    1.8633 H         1 <0>         0.1226
     29 H9         -4.2169   -0.4313    1.8824 H         1 <0>         0.1206
     30 H10        -5.0237   -1.8558    0.0444 H         1 <0>         0.1227
     31 H11        -3.5220   -2.4339   -1.8175 H         1 <0>         0.1166
     32 H12         1.6303   -2.0170   -6.1372 H         1 <0>         0.1416
     33 H13         2.9695   -4.1706   -5.7751 H         1 <0>         0.1939
@<TRIPOS>BOND
     1    1    2 1
     2    1   21 1
     3    1   22 1
     4    1   23 1
     5    2    3 1
     6    2    4 1
     7    2   24 1
     8    3   25 1
     9    3   26 1
    10    3   27 1
    11    4    9 ar
    12    4    5 ar
    13    5    6 ar
    14    5   28 1
    15    6    7 ar
    16    6   29 1
    17    7    8 ar
    18    7   30 1
    19    8    9 ar
    20    8   31 1
    21    9   10 1
    22   10   19 1
    23   10   11 1
    24   11   12 1
    25   11   13 2
    26   13   17 1
    27   13   14 1
    28   14   15 1
    29   14   18 2
    30   15   16 2
    31   15   32 1
    32   16   17 1
    33   16   33 1
    34   18   19 1
    35   19   20 2
@<TRIPOS>MOLECULE
ZINC39886131
   31    33     0     0     0
SMALL
USER_CHARGES

@<TRIPOS>ATOM
      1 C1         -0.0184    1.5028    0.0103 C.3       1 <0>        -0.1029
      2 C2          0.0021   -0.0041    0.0020 C.ar      1 <0>        -0.1275
      3 C3          0.0057   -0.6858   -1.2027 C.ar      1 <0>        -0.1141
      4 C4          0.0244   -2.0642   -1.2190 C.ar      1 <0>        -0.1317
      5 C5          0.0401   -2.7741   -0.0132 C.ar      1 <0>         0.1443
      6 C6          0.0368   -2.0773    1.2002 C.ar      1 <0>        -0.1174
      7 C7          0.0229   -0.6988    1.1991 C.ar      1 <0>        -0.1105
      8 N1          0.0581   -4.1365   -0.0207 N.2       1 <0>        -0.5464
      9 C8          0.8843   -4.7940    0.7845 C.2       1 <0>         0.4222
     10 C9          0.9429   -6.2717    0.8068 C.2       1 <0>        -0.0748
     11 C10         0.2363   -7.1844    0.0825 C.2       1 <0>         0.0027
     12 C11         0.4627   -8.5681    0.2740 C.2       1 <0>        -0.1186
     13 C12        -0.1385   -9.6502   -0.3578 C.2       1 <0>        -0.1563
     14 C13         0.2545  -10.9145    0.0029 C.2       1 <0>        -0.1558
     15 C14         1.2113  -11.0687    0.9587 C.2       1 <0>        -0.2143
     16 S1          1.6010   -9.3796    1.3847 S.3       1 <0>         0.1192
     17 S2          2.2021   -6.5238    2.0513 S.3       1 <0>        -0.2433
     18 C15         2.5263   -4.8058    2.4149 C.2       1 <0>         0.5408
     19 O1          3.4052   -4.2884    3.3003 O.3       1 <0>        -0.5745
     20 N2          1.7062   -4.1644    1.6087 N.2       1 <0>        -0.6756
     21 H1          1.0042    1.8801    0.0026 H         1 <0>         0.0605
     22 H2         -0.5455    1.8639   -0.8728 H         1 <0>         0.0575
     23 H3         -0.5286    1.8543    0.9071 H         1 <0>         0.0579
     24 H4         -0.0064   -0.1364   -2.1324 H         1 <0>         0.1122
     25 H5          0.0265   -2.5946   -2.1597 H         1 <0>         0.1158
     26 H6          0.0488   -2.6180    2.1351 H         1 <0>         0.1207
     27 H7          0.0240   -0.1594    2.1348 H         1 <0>         0.1101
     28 H8         -0.4965   -6.8518   -0.6377 H         1 <0>         0.1629
     29 H9         -0.8957   -9.4999   -1.1130 H         1 <0>         0.1333
     30 H10        -0.1913  -11.7789   -0.4667 H         1 <0>         0.1258
     31 H11         1.6310  -11.9812    1.3556 H         1 <0>         0.1779
@<TRIPOS>BOND
     1    1    2 1
     2    1   21 1
     3    1   22 1
     4    1   23 1
     5    2    7 ar
     6    2    3 ar
     7    3    4 ar
     8    3   24 1
     9    4    5 ar
    10    4   25 1
    11    5    6 ar
    12    5    8 1
    13    6    7 ar
    14    6   26 1
    15    7   27 1
    16    8    9 2
    17    9   20 1
    18    9   10 1
    19   10   11 2
    20   10   17 1
    21   11   12 1
    22   11   28 1
    23   12   16 1
    24   12   13 2
    25   13   14 1
    26   13   29 1
    27   14   15 2
    28   14   30 1
    29   15   16 1
    30   15   31 1
    31   17   18 1
    32   18   19 1
    33   18   20 2
@<TRIPOS>MOLECULE
ZINC44126773
   28    29     0     0     0
SMALL
USER_CHARGES

@<TRIPOS>ATOM
      1 C1         -0.0162    1.3442    0.0094 C.2       1 <0>        -0.2135
      2 C2          1.3239    1.7754   -0.0010 C.2       1 <0>        -0.1932
      3 C3          2.0964    0.6542   -0.0144 C.2       1 <0>         0.0370
      4 O1          1.2794   -0.4172   -0.0124 O.3       1 <0>        -0.1594
      5 C4          0.0021   -0.0041    0.0020 C.2       1 <0>        -0.0422
      6 C5          3.5708    0.6186   -0.0292 C.ar      1 <0>        -0.0257
      7 C6          4.2795    1.3894   -0.9564 C.ar      1 <0>        -0.0909
      8 C7          5.6436    1.3590   -0.9730 C.ar      1 <0>        -0.0775
      9 C8          6.3399    0.5557   -0.0620 C.ar      1 <0>        -0.0514
     10 C9          5.6362   -0.2181    0.8686 C.ar      1 <0>        -0.0859
     11 C10         4.2606   -0.1821    0.8887 C.ar      1 <0>        -0.0222
     12 Cl1         3.3824   -1.1334    2.0453 Cl        1 <0>        -0.0661
     13 C11         7.8114    0.5243   -0.0830 C.2       1 <0>         0.3387
     14 O2          8.4903    1.2708   -0.9815 O.3       1 <0>        -0.6059
     15 C12         8.4960   -0.2659    0.8132 C.2       1 <0>        -0.4948
     16 C13         9.8934   -0.2957    0.7933 C.2       1 <0>         0.3445
     17 O3         10.5043    0.3761   -0.0153 O.2       1 <0>        -0.4622
     18 C14        10.6427   -1.1604    1.7740 C.3       1 <0>         0.4072
     19 F1         12.0184   -1.0235    1.5602 F         1 <0>        -0.1868
     20 F2         10.3316   -0.7628    3.0788 F         1 <0>        -0.1872
     21 F3         10.2735   -2.4977    1.5935 F         1 <0>        -0.1872
     22 H1         -0.8932    1.9743    0.0252 H         1 <0>         0.1478
     23 H2          1.6720    2.7978    0.0008 H         1 <0>         0.1498
     24 H3         -0.8669   -0.6454    0.0074 H         1 <0>         0.2012
     25 H4          3.7458    2.0097   -1.6612 H         1 <0>         0.1346
     26 H5          6.1872    1.9556   -1.6906 H         1 <0>         0.1448
     27 H6          6.1718   -0.8383    1.5721 H         1 <0>         0.1472
     28 H7          7.9534   -0.8626    1.5314 H         1 <0>         0.0993
@<TRIPOS>BOND
     1    1    5 2
     2    1    2 1
     3    1   22 1
     4    2    3 2
     5    2   23 1
     6    3    4 1
     7    3    6 1
     8    4    5 1
     9    5   24 1
    10    6   11 ar
    11    6    7 ar
    12    7    8 ar
    13    7   25 1
    14    8    9 ar
    15    8   26 1
    16    9   10 ar
    17    9   13 1
    18   10   11 ar
    19   10   27 1
    20   11   12 1
    21   13   14 1
    22   13   15 2
    23   15   16 1
    24   15   28 1
    25   16   17 2
    26   16   18 1
    27   18   19 1
    28   18   20 1
    29   18   21 1
@<TRIPOS>MOLECULE
ZINC00973835
   34    36     0     0     0
SMALL
USER_CHARGES

@<TRIPOS>ATOM
      1 C1          0.0712    1.6182    0.2540 C.ar      1 <0>        -0.1126
      2 C2          1.2762    2.1847   -0.1175 C.ar      1 <0>        -0.1247
      3 C3          2.4217    1.4117   -0.1529 C.ar      1 <0>        -0.0958
      4 C4          2.3623    0.0723    0.1837 C.ar      1 <0>        -0.0934
      5 C5          1.1575   -0.4941    0.5562 C.ar      1 <0>        -0.0948
      6 C6          0.0118    0.2786    0.5902 C.ar      1 <0>        -0.1237
      7 C7          3.6108   -0.7707    0.1442 C.3       1 <0>         0.1005
      8 O1          4.2569   -0.7250    1.4180 O.3       1 <0>        -0.3086
      9 C8          5.4050   -1.4365    1.5525 C.ar      1 <0>         0.1426
     10 C9          5.9016   -2.1603    0.4740 C.ar      1 <0>        -0.2299
     11 C10         7.0648   -2.8838    0.6045 C.ar      1 <0>        -0.0516
     12 C11         7.7495   -2.8899    1.8274 C.ar      1 <0>        -0.1125
     13 C12         7.2444   -2.1582    2.9107 C.ar      1 <0>         0.0212
     14 C13         6.0830   -1.4342    2.7667 C.ar      1 <0>        -0.1631
     15 C14         8.9893   -3.6594    1.9730 C.2       1 <0>         0.0378
     16 C15         9.2224   -4.3659    3.1140 C.2       1 <0>        -0.1835
     17 C16         8.3518   -4.6367    4.2138 C.2       1 <0>         0.4799
     18 O2          7.0836   -4.1678    4.2255 O.3       1 <0>        -0.5665
     19 N1          8.8073   -5.3428    5.1991 N.2       1 <0>        -0.6221
     20 C17        10.0642   -5.8186    5.2068 C.2       1 <0>         0.3912
     21 S1         10.7011   -5.2190    3.6480 S.3       1 <0>        -0.1725
     22 S2         10.8507   -6.7616    6.3997 S.2       1 <0>        -0.5294
     23 H1         -0.8228    2.2231    0.2860 H         1 <0>         0.1228
     24 H2          1.3226    3.2311   -0.3805 H         1 <0>         0.1241
     25 H3          3.3629    1.8541   -0.4438 H         1 <0>         0.1244
     26 H4          1.1110   -1.5406    0.8188 H         1 <0>         0.1253
     27 H5         -0.9296   -0.1639    0.8808 H         1 <0>         0.1246
     28 H6          3.3461   -1.8013   -0.0921 H         1 <0>         0.0713
     29 H7          4.2858   -0.3846   -0.6196 H         1 <0>         0.0709
     30 H8          5.3731   -2.1548   -0.4679 H         1 <0>         0.1249
     31 H9          7.4492   -3.4462   -0.2336 H         1 <0>         0.1251
     32 H10         7.7675   -2.1595    3.8555 H         1 <0>         0.1315
     33 H11         5.6951   -0.8664    3.5995 H         1 <0>         0.1282
     34 H12         9.7176   -3.6659    1.1755 H         1 <0>         0.1382
@<TRIPOS>BOND
     1    1    6 ar
     2    1    2 ar
     3    1   23 1
     4    2    3 ar
     5    2   24 1
     6    3    4 ar
     7    3   25 1
     8    4    5 ar
     9    4    7 1
    10    5    6 ar
    11    5   26 1
    12    6   27 1
    13    7    8 1
    14    7   28 1
    15    7   29 1
    16    8    9 1
    17    9   14 ar
    18    9   10 ar
    19   10   11 ar
    20   10   30 1
    21   11   12 ar
    22   11   31 1
    23   12   13 ar
    24   12   15 1
    25   13   14 ar
    26   13   32 1
    27   14   33 1
    28   15   16 2
    29   15   34 1
    30   16   21 1
    31   16   17 1
    32   17   18 1
    33   17   19 2
    34   19   20 1
    35   20   21 1
    36   20   22 2
@<TRIPOS>MOLECULE
ZINC65740729
   50    51     0     0     0
SMALL
USER_CHARGES

@<TRIPOS>ATOM
      1 C1          0.2737    1.4301   -1.3275 C.3       1 <0>        -0.1199
      2 C2          0.3266   -0.0760   -1.3327 C.2       1 <0>        -0.0788
      3 C3          0.5014   -0.7552   -0.1654 C.2       1 <0>        -0.1413
      4 C4          0.4375   -2.1624   -0.1529 C.2       1 <0>         0.4513
      5 O1          0.3431   -2.8352   -1.2991 O.co2     1 <0>        -0.6860
      6 O2          0.4714   -2.8206    1.0051 O.co2     1 <0>        -0.7014
      7 C5          0.1952   -0.7807   -2.5442 C.2       1 <0>        -0.1050
      8 C6          0.1416   -0.1046   -3.7204 C.2       1 <0>        -0.1943
      9 C7          0.0092   -0.8147   -4.9411 C.2       1 <0>        -0.0703
     10 C8         -0.1401   -0.1477   -6.0890 C.2       1 <0>        -0.1634
     11 C9         -0.4167   -0.8984   -7.3661 C.3       1 <0>        -0.0998
     12 C10        -0.0319    1.3553   -6.1068 C.3       1 <0>         0.1414
     13 H1          0.2801    1.7220   -5.1288 H         1 <0>         0.0890
     14 C11        -1.3599    1.9721   -6.4990 C.2       1 <0>        -0.1600
     15 C12        -1.1242    2.9324   -7.3355 C.2       1 <0>        -0.1447
     16 C13         0.3818    3.0403   -7.5532 C.3       1 <0>         0.1249
     17 O3          0.9064    1.7769   -7.1211 O.3       1 <0>        -0.3449
     18 C14         0.5669    3.2480   -9.0573 C.3       1 <0>        -0.1067
     19 C15        -0.0886    4.5505   -9.4980 C.3       1 <0>        -0.1115
     20 C16        -1.2155    5.0183   -8.5928 C.3       1 <0>        -0.1163
     21 C17        -2.0674    3.8505   -8.0793 C.3       1 <0>        -0.0037
     22 C18        -3.1522    4.3680   -7.1327 C.3       1 <0>        -0.1388
     23 C19        -2.7046    3.1080   -9.2555 C.3       1 <0>        -0.1364
     24 C20         0.9799    4.1919   -6.7427 C.3       1 <0>        -0.1621
     25 H2          1.2795    1.8294   -1.4577 H         1 <0>         0.0640
     26 H3         -0.3623    1.7741   -2.1431 H         1 <0>         0.0628
     27 H4         -0.1344    1.7760   -0.3778 H         1 <0>         0.0614
     28 H5          0.6892   -0.2150    0.7508 H         1 <0>         0.1113
     29 H6          0.1370   -1.8591   -2.5381 H         1 <0>         0.2088
     30 H7          0.1997    0.9738   -3.7266 H         1 <0>         0.1001
     31 H8          0.0291   -1.8945   -4.9426 H         1 <0>         0.1173
     32 H9         -1.4933   -1.0046   -7.4992 H         1 <0>         0.0578
     33 H10         0.0010   -0.3478   -8.2090 H         1 <0>         0.0595
     34 H11         0.0421   -1.8857   -7.3139 H         1 <0>         0.0588
     35 H12        -2.3322    1.6649   -6.1430 H         1 <0>         0.1394
     36 H13         1.6316    3.2841   -9.2880 H         1 <0>         0.0667
     37 H14         0.1124    2.4158   -9.5948 H         1 <0>         0.0685
     38 H15         0.6743    5.3283   -9.5317 H         1 <0>         0.0612
     39 H16        -0.4857    4.4156  -10.5041 H         1 <0>         0.0621
     40 H17        -0.7886    5.5466   -7.7404 H         1 <0>         0.0706
     41 H18        -1.8542    5.7046   -9.1487 H         1 <0>         0.0641
     42 H19        -2.6881    4.9186   -6.3145 H         1 <0>         0.0572
     43 H20        -3.8261    5.0283   -7.6787 H         1 <0>         0.0579
     44 H21        -3.7155    3.5260   -6.7306 H         1 <0>         0.0583
     45 H22        -3.2615    2.2480   -8.8835 H         1 <0>         0.0562
     46 H23        -3.3821    3.7784   -9.7843 H         1 <0>         0.0572
     47 H24        -1.9243    2.7685   -9.9366 H         1 <0>         0.0597
     48 H25         0.8632    3.9864   -5.6786 H         1 <0>         0.0587
     49 H26         2.0393    4.2911   -6.9795 H         1 <0>         0.0632
     50 H27         0.4635    5.1187   -6.9925 H         1 <0>         0.0758
@<TRIPOS>BOND
     1    1    2 1
     2    1   25 1
     3    1   26 1
     4    1   27 1
     5    2    3 2
     6    2    7 1
     7    3    4 1
     8    3   28 1
     9    4    5 2
    10    4    6 1
    11    7    8 2
    12    7   29 1
    13    8    9 1
    14    8   30 1
    15    9   10 2
    16    9   31 1
    17   10   11 1
    18   10   12 1
    19   11   32 1
    20   11   33 1
    21   11   34 1
    22   12   13 1
    23   12   17 1
    24   12   14 1
    25   14   15 2
    26   14   35 1
    27   15   21 1
    28   15   16 1
    29   16   17 1
    30   16   18 1
    31   16   24 1
    32   18   19 1
    33   18   36 1
    34   18   37 1
    35   19   20 1
    36   19   38 1
    37   19   39 1
    38   20   21 1
    39   20   40 1
    40   20   41 1
    41   21   22 1
    42   21   23 1
    43   22   42 1
    44   22   43 1
    45   22   44 1
    46   23   45 1
    47   23   46 1
    48   23   47 1
    49   24   48 1
    50   24   49 1
    51   24   50 1
@<TRIPOS>MOLECULE
ZINC31892403
   44    46     0     0     0
SMALL
USER_CHARGES
(E)-3-[4-[2-(3,4-dihydro-2H-quinolin-1-yl)ethoxy]phenyl]prop-2-enoic acid
@<TRIPOS>ATOM
      1 C1         -0.1074   -2.6978   -0.0229 C.ar      1 <0>        -0.1538
      2 C2         -0.0924   -1.9914    1.1662 C.ar      1 <0>        -0.0948
      3 C3         -0.0754   -0.6136    1.1477 C.ar      1 <0>        -0.1684
      4 C4         -0.0739    0.0773   -0.0656 C.ar      1 <0>         0.1325
      5 C5         -0.0935   -0.6344   -1.2521 C.ar      1 <0>        -0.1246
      6 C6         -0.1080   -2.0202   -1.2256 C.ar      1 <0>        -0.0920
      7 C7         -0.1012    0.0510   -2.5954 C.3       1 <0>        -0.0806
      8 C8          0.3001    1.5183   -2.4269 C.3       1 <0>        -0.1255
      9 C9         -0.5077    2.0972   -1.2586 C.3       1 <0>         0.0500
     10 N1         -0.0506    1.4703   -0.0168 N.pl3     1 <0>        -0.4894
     11 C10        -0.8116    1.9696    1.1362 C.3       1 <0>         0.0526
     12 C11        -0.5127    3.4562    1.3395 C.3       1 <0>         0.0565
     13 O1         -1.0620    4.2054    0.2537 O.3       1 <0>        -0.3135
     14 C12        -0.8838    5.5507    0.2809 C.ar      1 <0>         0.1117
     15 C13        -0.1972    6.1374    1.3379 C.ar      1 <0>        -0.2016
     16 C14        -0.0088    7.5006    1.3674 C.ar      1 <0>        -0.0787
     17 C15        -0.5201    8.2978    0.3364 C.ar      1 <0>        -0.0705
     18 C16        -1.2157    7.7026   -0.7228 C.ar      1 <0>        -0.0756
     19 C17        -1.3936    6.3379   -0.7455 C.ar      1 <0>        -0.1496
     20 C18        -0.3276    9.7544    0.3660 C.2       1 <0>        -0.1114
     21 C19         0.3440   10.3263    1.3892 C.2       1 <0>        -0.1504
     22 C20         0.5297   11.7316    1.4178 C.2       1 <0>         0.4701
     23 O2          0.0842   12.4224    0.5210 O.co2     1 <0>        -0.6384
     24 O3          1.2005   12.3028    2.4397 O.co2     1 <0>        -0.7667
     25 H1         -0.1183   -3.7777   -0.0104 H         1 <0>         0.1190
     26 H2         -0.0943   -2.5192    2.1084 H         1 <0>         0.1210
     27 H3         -0.0635   -0.0646    2.0777 H         1 <0>         0.1265
     28 H4         -0.1201   -2.5739   -2.1528 H         1 <0>         0.1199
     29 H5          0.6138   -0.4483   -3.2659 H         1 <0>         0.0755
     30 H6         -1.1105   -0.0039   -3.0293 H         1 <0>         0.0729
     31 H7          1.3773    1.5816   -2.2132 H         1 <0>         0.0746
     32 H8          0.0772    2.0681   -3.3532 H         1 <0>         0.0778
     33 H9         -0.3513    3.1848   -1.2080 H         1 <0>         0.1123
     34 H10        -1.5765    1.8872   -1.4121 H         1 <0>         0.0450
     35 H11        -1.8875    1.8338    0.9520 H         1 <0>         0.0591
     36 H12        -0.5205    1.4104    2.0376 H         1 <0>         0.1081
     37 H13        -0.9636    3.7950    2.2839 H         1 <0>         0.0735
     38 H14         0.5759    3.6095    1.3771 H         1 <0>         0.0755
     39 H15         0.1927    5.5220    2.1352 H         1 <0>         0.1250
     40 H16         0.5282    7.9549    2.1869 H         1 <0>         0.1306
     41 H17        -1.6123    8.3132   -1.5204 H         1 <0>         0.1314
     42 H18        -1.9304    5.8778   -1.5620 H         1 <0>         0.1267
     43 H19        -0.7303   10.3790   -0.4450 H         1 <0>         0.1309
     44 H20         0.7468    9.7017    2.2001 H         1 <0>         0.1065
@<TRIPOS>BOND
     1    1    6 ar
     2    1    2 ar
     3    1   25 1
     4    2    3 ar
     5    2   26 1
     6    3    4 ar
     7    3   27 1
     8    4   10 1
     9    4    5 ar
    10    5    6 ar
    11    5    7 1
    12    6   28 1
    13    7    8 1
    14    7   29 1
    15    7   30 1
    16    8    9 1
    17    8   31 1
    18    8   32 1
    19    9   10 1
    20    9   33 1
    21    9   34 1
    22   10   11 1
    23   11   12 1
    24   11   35 1
    25   11   36 1
    26   12   13 1
    27   12   37 1
    28   12   38 1
    29   13   14 1
    30   14   19 ar
    31   14   15 ar
    32   15   16 ar
    33   15   39 1
    34   16   17 ar
    35   16   40 1
    36   17   18 ar
    37   17   20 1
    38   18   19 ar
    39   18   41 1
    40   19   42 1
    41   20   21 2
    42   20   43 1
    43   21   22 1
    44   21   44 1
    45   22   23 2
    46   22   24 1
@<TRIPOS>MOLECULE
ZINC39296617
   35    37     0     0     0
SMALL
USER_CHARGES

@<TRIPOS>ATOM
      1 C1          0.5082    1.5295    1.6699 C.ar      1 <0>        -0.0996
      2 C2          1.7893    1.8772    2.0602 C.ar      1 <0>        -0.1309
      3 C3          2.8729    1.1579    1.6004 C.ar      1 <0>        -0.0500
      4 C4          2.6745    0.0767    0.7398 C.ar      1 <0>        -0.1076
      5 C5          1.3792   -0.2690    0.3503 C.ar      1 <0>        -0.0907
      6 C6          0.3045    0.4591    0.8171 C.ar      1 <0>        -0.1297
      7 C7          3.8305   -0.6981    0.2429 C.2       1 <0>         0.5911
      8 O1          4.8812   -0.1358    0.0028 O.2       1 <0>        -0.5220
      9 N1          3.7200   -2.0283    0.0559 N.am      1 <0>        -0.4640
     10 C8          4.8536   -2.7877   -0.2550 C.ar      1 <0>         0.1765
     11 C9          4.7169   -4.1116   -0.6520 C.ar      1 <0>        -0.1537
     12 C10         5.8376   -4.8582   -0.9585 C.ar      1 <0>        -0.1009
     13 C11         7.0949   -4.2891   -0.8704 C.ar      1 <0>        -0.1550
     14 C12         7.2344   -2.9712   -0.4754 C.ar      1 <0>        -0.1013
     15 C13         6.1174   -2.2175   -0.1726 C.ar      1 <0>        -0.1516
     16 C14         2.4769   -2.6474    0.1720 C.2       1 <0>         0.0766
     17 C15         1.7514   -3.0580   -0.9278 C.2       1 <0>        -0.1738
     18 C16         0.5501   -3.6536   -0.7394 C.2       1 <0>        -0.2727
     19 S1          0.3532   -3.6825    0.9283 S.3       1 <0>         0.2132
     20 C17         1.8809   -2.9009    1.4109 C.2       1 <0>        -0.1571
     21 C18         2.3621   -2.6127    2.7044 C.2       1 <0>         0.5450
     22 O2          3.4488   -2.0630    2.8459 O.co2     1 <0>        -0.6527
     23 O3          1.6939   -2.9117    3.6878 O.co2     1 <0>        -0.6784
     24 H1         -0.3370    2.0935    2.0360 H         1 <0>         0.1220
     25 H2          1.9413    2.7138    2.7261 H         1 <0>         0.1254
     26 H3          3.8724    1.4307    1.9053 H         1 <0>         0.1283
     27 H4          1.2189   -1.1041   -0.3156 H         1 <0>         0.1333
     28 H5         -0.6981    0.1930    0.5164 H         1 <0>         0.1231
     29 H6          3.7354   -4.5569   -0.7207 H         1 <0>         0.1223
     30 H7          5.7321   -5.8879   -1.2670 H         1 <0>         0.1194
     31 H8          7.9697   -4.8752   -1.1103 H         1 <0>         0.1156
     32 H9          8.2177   -2.5297   -0.4072 H         1 <0>         0.1206
     33 H10         6.2267   -1.1871    0.1320 H         1 <0>         0.1689
     34 H11         2.1365   -2.9060   -1.9253 H         1 <0>         0.1289
     35 H12        -0.1290   -4.0259   -1.4922 H         1 <0>         0.1818
@<TRIPOS>BOND
     1    1    6 ar
     2    1    2 ar
     3    1   24 1
     4    2    3 ar
     5    2   25 1
     6    3    4 ar
     7    3   26 1
     8    4    5 ar
     9    4    7 1
    10    5    6 ar
    11    5   27 1
    12    6   28 1
    13    7    8 2
    14    7    9 am
    15    9   10 1
    16    9   16 1
    17   10   15 ar
    18   10   11 ar
    19   11   12 ar
    20   11   29 1
    21   12   13 ar
    22   12   30 1
    23   13   14 ar
    24   13   31 1
    25   14   15 ar
    26   14   32 1
    27   15   33 1
    28   16   20 2
    29   16   17 1
    30   17   18 2
    31   17   34 1
    32   18   19 1
    33   18   35 1
    34   19   20 1
    35   20   21 1
    36   21   22 2
    37   21   23 1
@<TRIPOS>MOLECULE
ZINC49546420
   36    38     0     0     0
SMALL
USER_CHARGES

@<TRIPOS>ATOM
      1 C1         -2.0434   -0.2856   -0.0237 C.3       1 <0>        -0.1473
      2 C2         -1.3051   -1.6236   -0.0987 C.3       1 <0>        -0.1148
      3 C3         -0.3604   -1.6181   -1.3021 C.3       1 <0>        -0.1461
      4 C4          0.3779   -2.9561   -1.3772 C.3       1 <0>         0.2341
      5 H1          0.8820   -3.1465   -0.4297 H         1 <0>         0.1035
      6 C5         -0.6103   -4.0604   -1.6512 C.2       1 <0>        -0.1884
      7 C6         -0.9015   -5.1509   -0.9007 C.2       1 <0>        -0.1524
      8 C7         -1.8560   -6.0417   -1.3547 C.2       1 <0>        -0.1774
      9 C8         -2.4725   -5.7984   -2.5371 C.2       1 <0>        -0.2557
     10 S1         -1.7068   -4.2676   -3.0447 S.3       1 <0>         0.2201
     11 N1          1.3678   -2.9078   -2.4560 N.pl3     1 <0>        -0.4783
     12 C9          2.7089   -3.2016   -2.3674 C.2       1 <0>         0.1508
     13 N2          3.2211   -3.0288   -3.5636 N.2       1 <0>        -0.2686
     14 N3          2.3053   -2.6523   -4.3827 N.2       1 <0>        -0.3313
     15 C10         1.1506   -2.5674   -3.7606 C.2       1 <0>         0.3623
     16 S2         -0.3898   -2.0976   -4.4756 S.3       1 <0>        -0.7231
     17 C11         3.4361   -3.6307   -1.1538 C.ar      1 <0>        -0.0280
     18 C12         3.0529   -3.1622    0.1086 C.ar      1 <0>        -0.0792
     19 C13         3.7662   -3.5940    1.2127 C.ar      1 <0>        -0.1662
     20 C14         4.8252   -4.4665    1.0358 C.ar      1 <0>         0.0906
     21 N4          5.1643   -4.8912   -0.1661 N.ar      1 <0>        -0.4793
     22 C15         4.5125   -4.5138   -1.2466 C.ar      1 <0>         0.1315
     23 H2         -1.3203    0.5226    0.0858 H         1 <0>         0.0507
     24 H3         -2.6193   -0.1367   -0.9370 H         1 <0>         0.0584
     25 H4         -2.7164   -0.2896    0.8337 H         1 <0>         0.0507
     26 H5         -0.7292   -1.7726    0.8147 H         1 <0>         0.0529
     27 H6         -2.0282   -2.4319   -0.2081 H         1 <0>         0.0669
     28 H7         -0.9363   -1.4692   -2.2155 H         1 <0>         0.1216
     29 H8          0.3627   -0.8098   -1.1927 H         1 <0>         0.0630
     30 H9         -0.3952   -5.3214    0.0379 H         1 <0>         0.1142
     31 H10        -2.1065   -6.9186   -0.7762 H         1 <0>         0.1094
     32 H11        -3.2326   -6.3780   -3.0397 H         1 <0>         0.1629
     33 H12         2.2219   -2.4810    0.2178 H         1 <0>         0.1351
     34 H13         3.4993   -3.2532    2.2021 H         1 <0>         0.1370
     35 H14         5.3838   -4.8051    1.8959 H         1 <0>         0.1556
     36 H15         4.8168   -4.8872   -2.2133 H         1 <0>         0.1645
@<TRIPOS>BOND
     1    1    2 1
     2    1   23 1
     3    1   24 1
     4    1   25 1
     5    2    3 1
     6    2   26 1
     7    2   27 1
     8    3    4 1
     9    3   28 1
    10    3   29 1
    11    4    5 1
    12    4    6 1
    13    4   11 1
    14    6   10 1
    15    6    7 2
    16    7    8 1
    17    7   30 1
    18    8    9 2
    19    8   31 1
    20    9   10 1
    21    9   32 1
    22   11   15 1
    23   11   12 1
    24   12   17 1
    25   12   13 2
    26   13   14 1
    27   14   15 2
    28   15   16 1
    29   17   22 ar
    30   17   18 ar
    31   18   19 ar
    32   18   33 1
    33   19   20 ar
    34   19   34 1
    35   20   21 ar
    36   20   35 1
    37   21   22 ar
    38   22   36 1
@<TRIPOS>MOLECULE
ZINC59248499
   43    44     0     0     0
SMALL
USER_CHARGES

@<TRIPOS>ATOM
      1 C1          0.2903    1.2805   -0.1347 C.3       1 <0>        -0.1571
      2 C2          0.0643   -0.2276   -0.0104 C.3       1 <0>         0.0091
      3 H1          0.5187   -0.7345   -0.8616 H         1 <0>         0.0704
      4 C3          0.6928   -0.7262    1.2653 C.2       1 <0>         0.5051
      5 O1         -0.0082   -1.1809    2.1532 O.co2     1 <0>        -0.6701
      6 O2          1.9024   -0.6749    1.4095 O.co2     1 <0>        -0.6843
      7 O3         -1.3386   -0.4987    0.0122 O.3       1 <0>        -0.2737
      8 C4         -1.9648   -0.6066   -1.1875 C.ar      1 <0>         0.1737
      9 C5         -1.2647   -0.3476   -2.3600 C.ar      1 <0>        -0.2297
     10 C6         -1.8955   -0.4553   -3.5792 C.ar      1 <0>        -0.0378
     11 C7         -3.2432   -0.8266   -3.6366 C.ar      1 <0>        -0.1516
     12 C8         -3.9434   -1.0867   -2.4535 C.ar      1 <0>        -0.0231
     13 C9         -3.3022   -0.9813   -1.2395 C.ar      1 <0>        -0.1754
     14 C10        -3.9220   -0.9426   -4.9364 C.2       1 <0>         0.2289
     15 N1         -5.1778   -1.2887   -4.9873 N.2       1 <0>        -0.5031
     16 C11        -5.8093   -1.3967   -6.1967 C.ar      1 <0>         0.0927
     17 C12        -5.6344   -0.4104   -7.1700 C.ar      1 <0>        -0.1543
     18 C13        -6.2740   -0.5256   -8.3867 C.ar      1 <0>        -0.1015
     19 C14        -7.0877   -1.6148   -8.6438 C.ar      1 <0>        -0.0922
     20 C15        -7.2658   -2.5955   -7.6840 C.ar      1 <0>        -0.1005
     21 C16        -6.6271   -2.4965   -6.4654 C.ar      1 <0>        -0.1074
     22 C17        -7.7835   -1.7334   -9.9753 C.3       1 <0>        -0.0553
     23 C18        -7.3363   -3.0203  -10.6716 C.3       1 <0>        -0.1445
     24 C19        -9.2975   -1.7708   -9.7580 C.3       1 <0>        -0.1446
     25 H2          1.3604    1.4873   -0.1519 H         1 <0>         0.0749
     26 H3         -0.1643    1.6412   -1.0574 H         1 <0>         0.0490
     27 H4         -0.1641    1.7874    0.7165 H         1 <0>         0.0606
     28 H5         -0.2244   -0.0611   -2.3147 H         1 <0>         0.1357
     29 H6         -1.3509   -0.2531   -4.4897 H         1 <0>         0.1258
     30 H7         -4.9839   -1.3733   -2.4926 H         1 <0>         0.1367
     31 H8         -3.8406   -1.1861   -0.3259 H         1 <0>         0.1340
     32 H9         -3.3799   -0.7411   -5.8485 H         1 <0>         0.1026
     33 H10        -5.0001    0.4407   -6.9704 H         1 <0>         0.1211
     34 H11        -6.1396    0.2363   -9.1402 H         1 <0>         0.1208
     35 H12        -7.9029   -3.4426   -7.8911 H         1 <0>         0.1236
     36 H13        -6.7629   -3.2652   -5.7191 H         1 <0>         0.1272
     37 H14        -7.5267   -0.8758  -10.5971 H         1 <0>         0.0757
     38 H15        -7.5930   -3.8779  -10.0498 H         1 <0>         0.0568
     39 H16        -7.8395   -3.1061  -11.6346 H         1 <0>         0.0568
     40 H17        -6.2576   -2.9936  -10.8264 H         1 <0>         0.0556
     41 H18        -9.5542   -2.6285   -9.1362 H         1 <0>         0.0569
     42 H19        -9.6161   -0.8540   -9.2619 H         1 <0>         0.0557
     43 H20        -9.8008   -1.8566  -10.7210 H         1 <0>         0.0568
@<TRIPOS>BOND
     1    1    2 1
     2    1   25 1
     3    1   26 1
     4    1   27 1
     5    2    3 1
     6    2    4 1
     7    2    7 1
     8    4    5 2
     9    4    6 1
    10    7    8 1
    11    8   13 ar
    12    8    9 ar
    13    9   10 ar
    14    9   28 1
    15   10   11 ar
    16   10   29 1
    17   11   12 ar
    18   11   14 1
    19   12   13 ar
    20   12   30 1
    21   13   31 1
    22   14   15 2
    23   14   32 1
    24   15   16 1
    25   16   21 ar
    26   16   17 ar
    27   17   18 ar
    28   17   33 1
    29   18   19 ar
    30   18   34 1
    31   19   20 ar
    32   19   22 1
    33   20   21 ar
    34   20   35 1
    35   21   36 1
    36   22   23 1
    37   22   24 1
    38   22   37 1
    39   23   38 1
    40   23   39 1
    41   23   40 1
    42   24   41 1
    43   24   42 1
    44   24   43 1
@<TRIPOS>MOLECULE
ZINC66402182
   39    40     0     0     0
SMALL
USER_CHARGES

@<TRIPOS>ATOM
      1 C1         -0.0187    1.5258    0.0104 C.3       1 <0>        -0.1500
      2 C2          0.0021   -0.0041    0.0020 C.3       1 <0>        -0.1166
      3 C3         -1.4333   -0.5336    0.0129 C.3       1 <0>        -0.0686
      4 H1         -1.9701   -0.1109    0.8621 H         1 <0>         0.0530
      5 C4         -2.1352   -0.1312   -1.2857 C.3       1 <0>        -0.1433
      6 C5         -1.4133   -2.0590    0.1302 C.3       1 <0>        -0.0672
      7 C6         -2.8242   -2.5711    0.2645 C.2       1 <0>        -0.0188
      8 C7         -3.3838   -2.7067    1.4748 C.2       1 <0>        -0.2104
      9 S1         -5.0149   -3.3289    1.1131 S.3       1 <0>         0.0224
     10 C8         -4.9015   -3.3902   -0.6555 C.ar      1 <0>         0.1614
     11 C9         -3.5960   -2.9180   -0.9175 C.ar      1 <0>        -0.2886
     12 C10        -3.2311   -2.8570   -2.2888 C.ar      1 <0>         0.4896
     13 O1         -1.9999   -2.4236   -2.6501 O.3       1 <0>        -0.6535
     14 N1         -4.1037   -3.2274   -3.2080 N.ar      1 <0>        -0.6217
     15 C11        -5.3201   -3.6584   -2.8942 C.ar      1 <0>         0.3563
     16 N2         -5.7133   -3.7467   -1.6305 N.ar      1 <0>        -0.5542
     17 S2         -6.4271   -4.1346   -4.1797 S.3       1 <0>        -0.0200
     18 C12        -5.4754   -3.8657   -5.7004 C.3       1 <0>        -0.1048
     19 C13        -6.3306   -4.2452   -6.9110 C.3       1 <0>        -0.0087
     20 C14        -5.5583   -4.0270   -8.1450 C.1       1 <0>         0.2165
     21 N3         -4.9624   -3.8586   -9.0974 N.1       1 <0>        -0.4357
     22 C15        -2.7782   -2.4050    2.8214 C.3       1 <0>        -0.0506
     23 H2          1.0039    1.9031    0.0027 H         1 <0>         0.0464
     24 H3         -0.5459    1.8868   -0.8726 H         1 <0>         0.0561
     25 H4         -0.5289    1.8773    0.9072 H         1 <0>         0.0483
     26 H5          0.5123   -0.3556   -0.8948 H         1 <0>         0.0627
     27 H6          0.5293   -0.3651    0.8851 H         1 <0>         0.0532
     28 H7         -3.1578   -0.5085   -1.2779 H         1 <0>         0.0444
     29 H8         -2.1495    0.9555   -1.3693 H         1 <0>         0.0274
     30 H9         -1.5984   -0.5539   -2.1349 H         1 <0>         0.0902
     31 H10        -0.9551   -2.4861   -0.7619 H         1 <0>         0.0960
     32 H11        -0.8366   -2.3483    1.0088 H         1 <0>         0.0527
     33 H12        -5.1920   -2.8155   -5.7707 H         1 <0>         0.1010
     34 H13        -4.5779   -4.4838   -5.6814 H         1 <0>         0.1009
     35 H14        -6.6140   -5.2954   -6.8407 H         1 <0>         0.1180
     36 H15        -7.2281   -3.6271   -6.9300 H         1 <0>         0.1180
     37 H16        -2.9870   -1.3694    3.0899 H         1 <0>         0.0646
     38 H17        -3.2096   -3.0687    3.5707 H         1 <0>         0.0621
     39 H18        -1.7000   -2.5586    2.7775 H         1 <0>         0.0717
@<TRIPOS>BOND
     1    1    2 1
     2    1   23 1
     3    1   24 1
     4    1   25 1
     5    2    3 1
     6    2   26 1
     7    2   27 1
     8    3    4 1
     9    3    5 1
    10    3    6 1
    11    5   28 1
    12    5   29 1
    13    5   30 1
    14    6    7 1
    15    6   31 1
    16    6   32 1
    17    7   11 1
    18    7    8 2
    19    8    9 1
    20    8   22 1
    21    9   10 1
    22   10   16 ar
    23   10   11 ar
    24   11   12 ar
    25   12   13 1
    26   12   14 ar
    27   14   15 ar
    28   15   16 ar
    29   15   17 1
    30   17   18 1
    31   18   19 1
    32   18   33 1
    33   18   34 1
    34   19   20 1
    35   19   35 1
    36   19   36 1
    37   20   21 3
    38   22   37 1
    39   22   38 1
    40   22   39 1
@<TRIPOS>MOLECULE
ZINC06146745
   48    50     0     0     0
SMALL
USER_CHARGES
N,N-diethyl-3-[5-sulfanyl-4-[3-(trifluoromethyl)phenyl]-1,2,4-triazol-3-yl]benzenesulfonamide
@<TRIPOS>ATOM
      1 C1         -5.7741    8.3120    7.0352 C.3       1 <0>        -0.1756
      2 C2         -5.3578    7.5531    5.7737 C.3       1 <0>         0.1185
      3 N1         -4.1654    8.1800    5.1979 N.pl3     1 <0>        -0.9954
      4 C3         -4.3037    9.3246    4.2941 C.3       1 <0>         0.1077
      5 C4         -4.5482    8.8228    2.8695 C.3       1 <0>        -0.1806
      6 S1         -2.6613    7.5948    5.5687 S.o2      1 <0>         2.6897
      7 O1         -2.7823    6.9248    6.8160 O.2       1 <0>        -0.9558
      8 O2         -1.7477    8.6636    5.3636 O.2       1 <0>        -0.9498
      9 C5         -2.2718    6.3626    4.3709 C.ar      1 <0>        -0.6725
     10 C6         -2.6179    5.0426    4.6008 C.ar      1 <0>        -0.0269
     11 C7         -2.3158    4.0690    3.6656 C.ar      1 <0>        -0.1294
     12 C8         -1.6719    4.4097    2.4938 C.ar      1 <0>        -0.0652
     13 C9         -1.3154    5.7383    2.2581 C.ar      1 <0>         0.0034
     14 C10        -1.6231    6.7159    3.2060 C.ar      1 <0>         0.0098
     15 C11        -0.6203    6.1097    1.0076 C.2       1 <0>         0.1454
     16 N2          0.0527    7.2152    0.7874 N.2       1 <0>        -0.2563
     17 N3          0.5190    7.2154   -0.4099 N.2       1 <0>        -0.3317
     18 C12         0.1781    6.1067   -1.0285 C.2       1 <0>         0.3867
     19 N4         -0.5562    5.3611   -0.1473 N.pl3     1 <0>        -0.4583
     20 C13        -1.1287    4.1018   -0.3741 C.ar      1 <0>         0.1563
     21 C14        -2.5093    3.9659   -0.4342 C.ar      1 <0>        -0.0787
     22 C15        -3.0702    2.7247   -0.6625 C.ar      1 <0>        -0.1107
     23 C16        -2.2587    1.6160   -0.8202 C.ar      1 <0>        -0.0711
     24 C17        -0.8837    1.7483   -0.7612 C.ar      1 <0>        -0.1740
     25 C18        -0.3166    2.9881   -0.5384 C.ar      1 <0>        -0.0397
     26 C19        -0.0028    0.5387   -0.9398 C.3       1 <0>         0.5117
     27 F1         -0.7998   -0.5917   -1.1500 F         1 <0>        -0.1783
     28 F2          0.8348    0.7306   -2.0438 F         1 <0>        -0.1689
     29 F3          0.7744    0.3542    0.2087 F         1 <0>        -0.1771
     30 S2          0.5908    5.6633   -2.6831 S.3       1 <0>        -0.7732
     31 H1         -6.6694    7.8413    7.4676 H         1 <0>         0.0680
     32 H2         -5.9980    9.3576    6.7770 H         1 <0>         0.0596
     33 H3         -4.9543    8.2828    7.7681 H         1 <0>         0.0641
     34 H4         -5.1339    6.5075    6.0320 H         1 <0>         0.0816
     35 H5         -6.1776    7.5822    5.0409 H         1 <0>         0.0807
     36 H6         -5.1534    9.9449    4.6153 H         1 <0>         0.0847
     37 H7         -3.3820    9.9245    4.3184 H         1 <0>         0.0968
     38 H8         -4.6521    9.6823    2.1908 H         1 <0>         0.0717
     39 H9         -5.4700    8.2230    2.8452 H         1 <0>         0.0599
     40 H10        -3.6985    8.2026    2.5483 H         1 <0>         0.0599
     41 H11        -3.1263    4.7713    5.5142 H         1 <0>         0.1390
     42 H12        -2.5889    3.0406    3.8509 H         1 <0>         0.1353
     43 H13        -1.4410    3.6494    1.7623 H         1 <0>         0.1299
     44 H14        -1.3543    7.7466    3.0276 H         1 <0>         0.1505
     45 H15        -3.1436    4.8306   -0.3071 H         1 <0>         0.1341
     46 H16        -4.1438    2.6191   -0.7134 H         1 <0>         0.1421
     47 H17        -2.6998    0.6457   -0.9941 H         1 <0>         0.1427
     48 H18         0.7575    3.0908   -0.4925 H         1 <0>         0.1395
@<TRIPOS>BOND
     1    1    2 1
     2    1   31 1
     3    1   32 1
     4    1   33 1
     5    2    3 1
     6    2   34 1
     7    2   35 1
     8    3    4 1
     9    3    6 1
    10    4    5 1
    11    4   36 1
    12    4   37 1
    13    5   38 1
    14    5   39 1
    15    5   40 1
    16    6    7 2
    17    6    8 2
    18    6    9 1
    19    9   14 ar
    20    9   10 ar
    21   10   11 ar
    22   10   41 1
    23   11   12 ar
    24   11   42 1
    25   12   13 ar
    26   12   43 1
    27   13   14 ar
    28   13   15 1
    29   14   44 1
    30   15   19 1
    31   15   16 2
    32   16   17 1
    33   17   18 2
    34   18   30 1
    35   18   19 1
    36   19   20 1
    37   20   25 ar
    38   20   21 ar
    39   21   22 ar
    40   21   45 1
    41   22   23 ar
    42   22   46 1
    43   23   24 ar
    44   23   47 1
    45   24   25 ar
    46   24   26 1
    47   25   48 1
    48   26   27 1
    49   26   28 1
    50   26   29 1
@<TRIPOS>MOLECULE
ZINC09019403
   59    62     0     0     0
SMALL
USER_CHARGES

@<TRIPOS>ATOM
      1 C1          0.1410    1.4951    0.1721 C.3       1 <0>        -0.1362
      2 C2          0.0935   -0.0330    0.1136 C.3       1 <0>        -0.0258
      3 C3          0.8159   -0.6127    1.3314 C.3       1 <0>        -0.1381
      4 C4         -1.3640   -0.4985    0.1159 C.3       1 <0>        -0.1409
      5 C5          0.7708   -0.5088   -1.1457 C.ar      1 <0>        -0.0782
      6 C6          0.0606   -1.2421   -2.0778 C.ar      1 <0>        -0.1246
      7 C7          0.6818   -1.6785   -3.2330 C.ar      1 <0>        -0.1121
      8 C8          2.0132   -1.3813   -3.4563 C.ar      1 <0>        -0.0724
      9 C9          2.7233   -0.6472   -2.5247 C.ar      1 <0>        -0.0690
     10 C10         2.1008   -0.2071   -1.3715 C.ar      1 <0>        -0.1118
     11 C11         2.6908   -1.8579   -4.7152 C.3       1 <0>         0.2617
     12 H1          1.9485   -2.2248   -5.4241 H         1 <0>         0.0708
     13 C12         3.6826   -2.9503   -4.3897 C.2       1 <0>        -0.4974
     14 C13         3.3843   -4.2473   -3.7740 C.2       1 <0>         0.5078
     15 C14         2.5652   -5.2379   -4.4998 C.ar      1 <0>        -0.1721
     16 C15         2.1757   -4.9930   -5.8202 C.ar      1 <0>        -0.0249
     17 C16         1.4123   -5.9197   -6.4936 C.ar      1 <0>        -0.1676
     18 C17         1.0284   -7.0978   -5.8626 C.ar      1 <0>         0.1370
     19 C18         1.4132   -7.3449   -4.5495 C.ar      1 <0>        -0.2240
     20 C19         2.1815   -6.4262   -3.8707 C.ar      1 <0>        -0.0344
     21 O1          0.2758   -8.0086   -6.5300 O.3       1 <0>        -0.3184
     22 C20        -0.0833   -9.1969   -5.8222 C.3       1 <0>         0.0274
     23 O2          3.8120   -4.5070   -2.6647 O.2       1 <0>        -0.4772
     24 C21         4.8992   -2.5009   -4.7759 C.2       1 <0>         0.2616
     25 O3          6.0612   -3.1839   -4.6570 O.3       1 <0>        -0.6550
     26 C22         4.7571   -1.1459   -5.3486 C.2       1 <0>         0.5144
     27 O4          5.6704   -0.4743   -5.7857 O.2       1 <0>        -0.5312
     28 N1          3.4668   -0.7661   -5.3150 N.am      1 <0>        -0.6095
     29 C23         2.9312    0.5109   -5.7929 C.3       1 <0>         0.2158
     30 C24         2.9472    1.5145   -4.6688 C.2       1 <0>        -0.0261
     31 C25         3.9573    2.3537   -4.3777 C.2       1 <0>        -0.1936
     32 C26         3.5500    3.1115   -3.2558 C.2       1 <0>        -0.2189
     33 C27         2.3152    2.6901   -2.9284 C.2       1 <0>        -0.0366
     34 O5          1.9529    1.7268   -3.7912 O.3       1 <0>        -0.1579
     35 H2          1.1793    1.8267    0.1705 H         1 <0>         0.0554
     36 H3         -0.3736    1.9081   -0.6955 H         1 <0>         0.0549
     37 H4         -0.3489    1.8392    1.0830 H         1 <0>         0.0529
     38 H5          0.3260   -0.2686    2.2423 H         1 <0>         0.0527
     39 H6          0.7821   -1.7014    1.2897 H         1 <0>         0.0563
     40 H7          1.8542   -0.2811    1.3298 H         1 <0>         0.0562
     41 H8         -1.8786   -0.0855   -0.7517 H         1 <0>         0.0571
     42 H9         -1.3978   -1.5871    0.0742 H         1 <0>         0.0576
     43 H10        -1.8539   -0.1543    1.0267 H         1 <0>         0.0523
     44 H11        -0.9796   -1.4743   -1.9033 H         1 <0>         0.1171
     45 H12         0.1271   -2.2521   -3.9608 H         1 <0>         0.1145
     46 H13         3.7635   -0.4153   -2.6990 H         1 <0>         0.1083
     47 H14         2.6545    0.3695   -0.6454 H         1 <0>         0.1084
     48 H15         2.4732   -4.0781   -6.3110 H         1 <0>         0.1411
     49 H16         1.1107   -5.7312   -7.5134 H         1 <0>         0.1307
     50 H17         1.1123   -8.2609   -4.0627 H         1 <0>         0.1264
     51 H18         2.4837   -6.6209   -2.8523 H         1 <0>         0.1311
     52 H19         0.8200   -9.7275   -5.5212 H         1 <0>         0.0551
     53 H20        -0.6611   -8.9319   -4.9368 H         1 <0>         0.0548
     54 H21        -0.6827   -9.8378   -6.4688 H         1 <0>         0.0968
     55 H22         3.5451    0.8773   -6.6157 H         1 <0>         0.1092
     56 H23         1.9073    0.3689   -6.1387 H         1 <0>         0.0913
     57 H24         4.8991    2.4329   -4.9003 H         1 <0>         0.1446
     58 H25         4.1208    3.8809   -2.7571 H         1 <0>         0.1411
     59 H26         1.7153    3.0656   -2.1126 H         1 <0>         0.1919
@<TRIPOS>BOND
     1    1    2 1
     2    1   35 1
     3    1   36 1
     4    1   37 1
     5    2    3 1
     6    2    4 1
     7    2    5 1
     8    3   38 1
     9    3   39 1
    10    3   40 1
    11    4   41 1
    12    4   42 1
    13    4   43 1
    14    5   10 ar
    15    5    6 ar
    16    6    7 ar
    17    6   44 1
    18    7    8 ar
    19    7   45 1
    20    8    9 ar
    21    8   11 1
    22    9   10 ar
    23    9   46 1
    24   10   47 1
    25   11   13 1
    26   11   28 1
    27   11   12 1
    28   13   24 2
    29   13   14 1
    30   14   23 2
    31   14   15 1
    32   15   20 ar
    33   15   16 ar
    34   16   17 ar
    35   16   48 1
    36   17   18 ar
    37   17   49 1
    38   18   19 ar
    39   18   21 1
    40   19   20 ar
    41   19   50 1
    42   20   51 1
    43   21   22 1
    44   22   52 1
    45   22   53 1
    46   22   54 1
    47   24   26 1
    48   24   25 1
    49   26   28 am
    50   26   27 2
    51   28   29 1
    52   29   30 1
    53   29   55 1
    54   29   56 1
    55   30   34 1
    56   30   31 2
    57   31   32 1
    58   31   57 1
    59   32   33 2
    60   32   58 1
    61   33   34 1
    62   33   59 1
@<TRIPOS>MOLECULE
ZINC39997049
   39    40     0     0     0
SMALL
USER_CHARGES

@<TRIPOS>ATOM
      1 C1         -1.9508    1.2998    1.2521 C.3       1 <0>        -0.1538
      2 C2         -1.7190   -0.2057    1.1083 C.3       1 <0>        -0.1177
      3 C3         -0.7980   -0.6894    2.2302 C.3       1 <0>        -0.1066
      4 C4         -0.5662   -2.1949    2.0864 C.3       1 <0>        -0.1126
      5 S1          0.5258   -2.7683    3.4165 S.3       1 <0>         0.0466
      6 C5          0.6932   -4.4963    3.1154 C.2       1 <0>         0.0059
      7 N1          0.1717   -5.2483    2.1543 N.2       1 <0>        -0.2716
      8 N2          0.3944   -6.4876    2.0819 N.2       1 <0>        -0.2794
      9 C6          1.1665   -7.1137    2.9664 C.2       1 <0>         0.2294
     10 S2          1.6215   -5.7353    4.0147 S.3       1 <0>         0.0830
     11 N3          1.5146   -8.4241    3.0478 N.2       1 <0>        -0.4403
     12 C7          1.0663   -9.2797    2.1567 C.2       1 <0>         0.4494
     13 C8          1.4431  -10.6977    2.2448 C.2       1 <0>        -0.0480
     14 C9          0.9735  -11.5938    1.3115 C.2       1 <0>         0.0305
     15 C10         1.2236  -13.0288    1.4820 C.ar      1 <0>        -0.0750
     16 C11         1.2908  -13.5848    2.7662 C.ar      1 <0>        -0.0812
     17 C12         1.5262  -14.9339    2.9172 C.ar      1 <0>        -0.1022
     18 C13         1.6968  -15.7406    1.8043 C.ar      1 <0>        -0.0833
     19 C14         1.6321  -15.2011    0.5317 C.ar      1 <0>        -0.0921
     20 C15         1.3911  -13.8533    0.3610 C.ar      1 <0>        -0.0604
     21 Br1         1.2947  -13.1197   -1.3792 Br        1 <0>        -0.0295
     22 C16         2.2986  -11.1470    3.3015 C.1       1 <0>         0.2554
     23 N4          2.9774  -11.5034    4.1399 N.1       1 <0>        -0.3764
     24 O1          0.2578   -8.8551    1.1580 O.3       1 <0>        -0.4479
     25 H1         -0.9961    1.8220    1.1889 H         1 <0>         0.0560
     26 H2         -2.6069    1.6444    0.4528 H         1 <0>         0.0578
     27 H3         -2.4143    1.5056    2.2169 H         1 <0>         0.0560
     28 H4         -2.6737   -0.7279    1.1715 H         1 <0>         0.0665
     29 H5         -1.2555   -0.4114    0.1435 H         1 <0>         0.0665
     30 H6          0.1567   -0.1671    2.1670 H         1 <0>         0.0760
     31 H7         -1.2615   -0.4836    3.1950 H         1 <0>         0.0760
     32 H8         -1.5209   -2.7171    2.1496 H         1 <0>         0.0986
     33 H9         -0.1027   -2.4006    1.1216 H         1 <0>         0.0987
     34 H10         0.4209  -11.2401    0.4536 H         1 <0>         0.1614
     35 H11         1.1589  -12.9575    3.6355 H         1 <0>         0.1371
     36 H12         1.5783  -15.3638    3.9066 H         1 <0>         0.1395
     37 H13         1.8816  -16.7971    1.9306 H         1 <0>         0.1412
     38 H14         1.7663  -15.8376   -0.3304 H         1 <0>         0.1435
     39 H15        -0.0205   -9.5558    0.5525 H         1 <0>         0.4028
@<TRIPOS>BOND
     1    1    2 1
     2    1   25 1
     3    1   26 1
     4    1   27 1
     5    2    3 1
     6    2   28 1
     7    2   29 1
     8    3    4 1
     9    3   30 1
    10    3   31 1
    11    4    5 1
    12    4   32 1
    13    4   33 1
    14    5    6 1
    15    6   10 1
    16    6    7 2
    17    7    8 1
    18    8    9 2
    19    9   10 1
    20    9   11 1
    21   11   12 2
    22   12   13 1
    23   12   24 1
    24   13   14 2
    25   13   22 1
    26   14   15 1
    27   14   34 1
    28   15   20 ar
    29   15   16 ar
    30   16   17 ar
    31   16   35 1
    32   17   18 ar
    33   17   36 1
    34   18   19 ar
    35   18   37 1
    36   19   20 ar
    37   19   38 1
    38   20   21 1
    39   22   23 3
    40   24   39 1
@<TRIPOS>MOLECULE
ZINC40077194
   49    51     0     0     0
SMALL
USER_CHARGES

@<TRIPOS>ATOM
      1 C1         -0.1751    1.6481    0.1125 C.3       1 <0>        -0.1504
      2 C2         -0.1207    0.1236   -0.0057 C.3       1 <0>        -0.1207
      3 C3         -1.5405   -0.4435    0.0534 C.3       1 <0>        -0.1371
      4 C4         -1.4862   -1.9679   -0.0648 C.3       1 <0>         0.1364
      5 N1         -2.8456   -2.5109   -0.0083 N.am      1 <0>        -0.6112
      6 C5         -3.5647   -2.9140    1.2059 C.3       1 <0>         0.2645
      7 H1         -3.6807   -2.0603    1.8736 H         1 <0>         0.0694
      8 C6         -4.9190   -3.4049    0.7502 C.2       1 <0>        -0.5067
      9 C7         -4.9453   -3.2833   -0.5977 C.2       1 <0>         0.2666
     10 C8         -3.6578   -2.7228   -1.0597 C.2       1 <0>         0.5108
     11 O1         -3.3742   -2.4902   -2.2180 O.2       1 <0>        -0.5337
     12 O2         -5.9861   -3.6172   -1.3948 O.3       1 <0>        -0.6509
     13 C9         -5.9967   -3.9148    1.6032 C.2       1 <0>         0.5024
     14 O3         -6.3375   -5.0800    1.5216 O.2       1 <0>        -0.4668
     15 C10        -6.6692   -3.0136    2.5625 C.ar      1 <0>        -0.1185
     16 C11        -6.3683   -1.6496    2.5727 C.ar      1 <0>        -0.0596
     17 C12        -6.9994   -0.8141    3.4696 C.ar      1 <0>        -0.1073
     18 C13        -7.9297   -1.3247    4.3597 C.ar      1 <0>        -0.0772
     19 C14        -8.2322   -2.6764    4.3550 C.ar      1 <0>        -0.1066
     20 C15        -7.6126   -3.5213    3.4589 C.ar      1 <0>        -0.0708
     21 Br1        -8.7901   -0.1717    5.5870 Br        1 <0>        -0.0623
     22 C16        -2.8196   -4.0212    1.9059 C.ar      1 <0>        -0.0715
     23 C17        -2.3162   -5.0827    1.1762 C.ar      1 <0>        -0.0697
     24 C18        -1.6333   -6.0992    1.8142 C.ar      1 <0>        -0.0977
     25 C19        -1.4517   -6.0544    3.1913 C.ar      1 <0>        -0.0902
     26 C20        -1.9585   -4.9859    3.9213 C.ar      1 <0>        -0.1327
     27 C21        -2.6359   -3.9704    3.2757 C.ar      1 <0>        -0.0979
     28 S1         -0.5814   -7.3494    4.0099 S.3       1 <0>        -0.1345
     29 C22        -0.6024   -6.8571    5.7557 C.3       1 <0>        -0.1403
     30 H2          0.8364    2.0521    0.0704 H         1 <0>         0.0511
     31 H3         -0.7636    2.0555   -0.7096 H         1 <0>         0.0537
     32 H4         -0.6369    1.9227    1.0609 H         1 <0>         0.0527
     33 H5          0.3411   -0.1510   -0.9541 H         1 <0>         0.0620
     34 H6          0.4677   -0.2838    0.8164 H         1 <0>         0.0609
     35 H7         -2.0023   -0.1688    1.0017 H         1 <0>         0.0641
     36 H8         -2.1290   -0.0361   -0.7688 H         1 <0>         0.0669
     37 H9         -1.0243   -2.2426   -1.0132 H         1 <0>         0.0766
     38 H10        -0.8977   -2.3753    0.7573 H         1 <0>         0.0736
     39 H11        -5.6425   -1.2503    1.8796 H         1 <0>         0.1435
     40 H12        -6.7676    0.2407    3.4785 H         1 <0>         0.1329
     41 H13        -8.9583   -3.0685    5.0518 H         1 <0>         0.1319
     42 H14        -7.8529   -4.5743    3.4529 H         1 <0>         0.1384
     43 H15        -2.4577   -5.1169    0.1060 H         1 <0>         0.1235
     44 H16        -1.2411   -6.9282    1.2439 H         1 <0>         0.1234
     45 H17        -1.8192   -4.9477    4.9916 H         1 <0>         0.1182
     46 H18        -3.0265   -3.1377    3.8418 H         1 <0>         0.1224
     47 H19        -0.0805   -7.6065    6.3508 H         1 <0>         0.1047
     48 H20        -0.1051   -5.8936    5.8675 H         1 <0>         0.0814
     49 H21        -1.6341   -6.7754    6.0978 H         1 <0>         0.0823
@<TRIPOS>BOND
     1    1    2 1
     2    1   30 1
     3    1   31 1
     4    1   32 1
     5    2    3 1
     6    2   33 1
     7    2   34 1
     8    3    4 1
     9    3   35 1
    10    3   36 1
    11    4    5 1
    12    4   37 1
    13    4   38 1
    14    5   10 am
    15    5    6 1
    16    6    7 1
    17    6    8 1
    18    6   22 1
    19    8    9 2
    20    8   13 1
    21    9   10 1
    22    9   12 1
    23   10   11 2
    24   13   14 2
    25   13   15 1
    26   15   20 ar
    27   15   16 ar
    28   16   17 ar
    29   16   39 1
    30   17   18 ar
    31   17   40 1
    32   18   19 ar
    33   18   21 1
    34   19   20 ar
    35   19   41 1
    36   20   42 1
    37   22   27 ar
    38   22   23 ar
    39   23   24 ar
    40   23   43 1
    41   24   25 ar
    42   24   44 1
    43   25   26 ar
    44   25   28 1
    45   26   27 ar
    46   26   45 1
    47   27   46 1
    48   28   29 1
    49   29   47 1
    50   29   48 1
    51   29   49 1
@<TRIPOS>MOLECULE
ZINC40100181
   52    54     0     0     0
SMALL
USER_CHARGES

@<TRIPOS>ATOM
      1 C1         -0.4269    1.7110    0.0615 C.3       1 <0>        -0.1488
      2 C2         -0.3150    0.1867    0.1312 C.3       1 <0>        -0.1210
      3 C3         -1.7161   -0.4279    0.1366 C.3       1 <0>        -0.1388
      4 C4         -1.6042   -1.9522    0.2063 C.3       1 <0>         0.1397
      5 N1         -2.9459   -2.5390    0.2471 N.am      1 <0>        -0.6064
      6 C5         -3.7429   -2.7885    1.4539 C.3       1 <0>         0.2756
      7 H1         -3.2198   -3.4826    2.1117 H         1 <0>         0.0691
      8 C6         -5.0420   -3.3989    0.9822 C.2       1 <0>        -0.5083
      9 C7         -4.9686   -3.4794   -0.3670 C.2       1 <0>         0.2772
     10 C8         -3.6676   -2.9392   -0.8154 C.2       1 <0>         0.5261
     11 O1         -3.3032   -2.8690   -1.9723 O.2       1 <0>        -0.5409
     12 O2         -5.9338   -3.9721   -1.1767 O.3       1 <0>        -0.6580
     13 C9         -6.1651   -3.8227    1.8235 C.2       1 <0>         0.5065
     14 O3         -7.2204   -3.2188    1.7789 O.2       1 <0>        -0.4698
     15 C10        -6.0156   -4.9841    2.7263 C.ar      1 <0>        -0.1131
     16 C11        -4.7869   -5.6409    2.8264 C.ar      1 <0>        -0.0712
     17 C12        -4.6528   -6.7233    3.6704 C.ar      1 <0>        -0.1101
     18 C13        -5.7320   -7.1604    4.4180 C.ar      1 <0>        -0.1083
     19 C14        -6.9546   -6.5146    4.3241 C.ar      1 <0>         0.0782
     20 C15        -7.1002   -5.4253    3.4864 C.ar      1 <0>        -0.1052
     21 F1         -8.0040   -6.9471    5.0567 F         1 <0>        -0.1425
     22 C16        -5.5774   -8.3440    5.3380 C.3       1 <0>        -0.1126
     23 C17        -4.0098   -1.4927    2.1756 C.ar      1 <0>        -0.1056
     24 C18        -3.8013   -1.4050    3.5386 C.ar      1 <0>        -0.0503
     25 C19        -4.0460   -0.2159    4.2015 C.ar      1 <0>        -0.1319
     26 C20        -4.5000    0.8880    3.5015 C.ar      1 <0>        -0.0544
     27 C21        -4.7093    0.8046    2.1388 C.ar      1 <0>        -0.2156
     28 C22        -4.4594   -0.3858    1.4711 C.ar      1 <0>         0.1841
     29 O4         -4.6602   -0.4685    0.1294 O.3       1 <0>        -0.2781
     30 C23        -5.0329    0.7342   -0.5462 C.3       1 <0>         0.0249
     31 Br1        -3.7604   -0.0988    6.0672 Br        1 <0>        -0.0666
     32 H2          0.5713    2.1488    0.0577 H         1 <0>         0.0507
     33 H3         -0.9519    1.9954   -0.8504 H         1 <0>         0.0516
     34 H4         -0.9799    2.0747    0.9276 H         1 <0>         0.0517
     35 H5          0.2380   -0.1770   -0.7348 H         1 <0>         0.0607
     36 H6          0.2100   -0.0978    1.0431 H         1 <0>         0.0599
     37 H7         -2.2691   -0.0642    1.0026 H         1 <0>         0.0655
     38 H8         -2.2411   -0.1435   -0.7753 H         1 <0>         0.0662
     39 H9         -1.0742   -2.3182   -0.6731 H         1 <0>         0.0766
     40 H10        -1.0562   -2.2356    1.1049 H         1 <0>         0.0700
     41 H11        -3.9433   -5.3017    2.2436 H         1 <0>         0.1413
     42 H12        -3.7029   -7.2315    3.7477 H         1 <0>         0.1328
     43 H13        -8.0517   -4.9191    3.4169 H         1 <0>         0.1407
     44 H14        -5.2658   -7.9995    6.3240 H         1 <0>         0.0723
     45 H15        -6.5301   -8.8671    5.4202 H         1 <0>         0.0675
     46 H16        -4.8245   -9.0214    4.9351 H         1 <0>         0.0712
     47 H17        -3.4473   -2.2655    4.0869 H         1 <0>         0.1345
     48 H18        -4.6912    1.8153    4.0211 H         1 <0>         0.1278
     49 H19        -5.0640    1.6662    1.5928 H         1 <0>         0.1322
     50 H20        -5.9310    1.1461   -0.0860 H         1 <0>         0.0537
     51 H21        -4.2218    1.4587   -0.4724 H         1 <0>         0.0505
     52 H22        -5.2300    0.5153   -1.5957 H         1 <0>         0.0986
@<TRIPOS>BOND
     1    1    2 1
     2    1   32 1
     3    1   33 1
     4    1   34 1
     5    2    3 1
     6    2   35 1
     7    2   36 1
     8    3    4 1
     9    3   37 1
    10    3   38 1
    11    4    5 1
    12    4   39 1
    13    4   40 1
    14    5   10 am
    15    5    6 1
    16    6    7 1
    17    6    8 1
    18    6   23 1
    19    8    9 2
    20    8   13 1
    21    9   10 1
    22    9   12 1
    23   10   11 2
    24   13   14 2
    25   13   15 1
    26   15   20 ar
    27   15   16 ar
    28   16   17 ar
    29   16   41 1
    30   17   18 ar
    31   17   42 1
    32   18   19 ar
    33   18   22 1
    34   19   20 ar
    35   19   21 1
    36   20   43 1
    37   22   44 1
    38   22   45 1
    39   22   46 1
    40   23   28 ar
    41   23   24 ar
    42   24   25 ar
    43   24   47 1
    44   25   26 ar
    45   25   31 1
    46   26   27 ar
    47   26   48 1
    48   27   28 ar
    49   27   49 1
    50   28   29 1
    51   29   30 1
    52   30   50 1
    53   30   51 1
    54   30   52 1
@<TRIPOS>MOLECULE
ZINC34768371
   36    37     0     0     0
SMALL
USER_CHARGES

@<TRIPOS>ATOM
      1 C1         -0.0157    1.3058    0.0092 C.2       1 <0>        -0.1699
      2 C2          0.0021   -0.0041    0.0020 C.2       1 <0>        -0.1733
      3 C3          1.3172   -0.7397   -0.0145 C.3       1 <0>         0.1451
      4 N1          1.3674   -1.6756    1.1115 N.am      1 <0>        -0.7356
      5 C4          2.4568   -2.4468    1.2987 C.2       1 <0>         0.5196
      6 O1          3.3955   -2.3660    0.5350 O.2       1 <0>        -0.5388
      7 C5          2.5084   -3.4095    2.4570 C.3       1 <0>        -0.1271
      8 C6          3.8436   -4.1564    2.4402 C.3       1 <0>        -0.0154
      9 C7          3.8953   -5.1191    3.5985 C.ar      1 <0>        -0.0668
     10 C8          4.4025   -4.7112    4.8341 C.ar      1 <0>         0.4167
     11 O2          4.8551   -3.4462    5.0118 O.3       1 <0>        -0.6652
     12 N2          4.4322   -5.5871    5.8313 N.ar      1 <0>        -0.5779
     13 C9          3.9815   -6.8206    5.6288 C.ar      1 <0>         0.3110
     14 N3          3.5046   -7.1830    4.4439 N.ar      1 <0>        -0.3812
     15 N4          3.4565   -6.3563    3.4586 N.ar      1 <0>        -0.1952
     16 C10         4.0119   -7.8034    6.7383 C.ar      1 <0>         0.0029
     17 C11         4.5057   -7.4316    7.9880 C.ar      1 <0>        -0.0558
     18 C12         4.5322   -8.3484    9.0185 C.ar      1 <0>        -0.1360
     19 C13         4.0695   -9.6380    8.8139 C.ar      1 <0>         0.0683
     20 C14         3.5773  -10.0138    7.5720 C.ar      1 <0>         0.0553
     21 C15         3.5415   -9.0999    6.5365 C.ar      1 <0>        -0.0858
     22 F1          3.1279  -11.2728    7.3769 F         1 <0>        -0.1316
     23 F2          4.0979  -10.5324    9.8260 F         1 <0>        -0.1334
     24 H1          0.9122    1.8585    0.0033 H         1 <0>         0.1001
     25 H2         -0.9582    1.8330    0.0166 H         1 <0>         0.1018
     26 H3         -0.9258   -0.5567    0.0079 H         1 <0>         0.1148
     27 H4          1.4134   -1.2911   -0.9498 H         1 <0>         0.0740
     28 H5          2.1349   -0.0241    0.0711 H         1 <0>         0.0697
     29 H6          0.6167   -1.7402    1.7223 H         1 <0>         0.4011
     30 H7          2.4122   -2.8581    3.3923 H         1 <0>         0.0958
     31 H8          1.6907   -4.1251    2.3714 H         1 <0>         0.0905
     32 H9          3.9398   -4.7078    1.5049 H         1 <0>         0.0729
     33 H10         4.6613   -3.4408    2.5258 H         1 <0>         0.0867
     34 H11         4.8676   -6.4269    8.1491 H         1 <0>         0.1558
     35 H12         4.9148   -8.0603    9.9865 H         1 <0>         0.1470
     36 H13         3.1540   -9.3908    5.5713 H         1 <0>         0.1600
@<TRIPOS>BOND
     1    1    2 2
     2    1   24 1
     3    1   25 1
     4    2    3 1
     5    2   26 1
     6    3    4 1
     7    3   27 1
     8    3   28 1
     9    4    5 am
    10    4   29 1
    11    5    6 2
    12    5    7 1
    13    7    8 1
    14    7   30 1
    15    7   31 1
    16    8    9 1
    17    8   32 1
    18    8   33 1
    19    9   15 ar
    20    9   10 ar
    21   10   11 1
    22   10   12 ar
    23   12   13 ar
    24   13   14 ar
    25   13   16 1
    26   14   15 ar
    27   16   21 ar
    28   16   17 ar
    29   17   18 ar
    30   17   34 1
    31   18   19 ar
    32   18   35 1
    33   19   20 ar
    34   19   23 1
    35   20   21 ar
    36   20   22 1
    37   21   36 1
@<TRIPOS>MOLECULE
ZINC44886747
   32    33     0     0     0
SMALL
USER_CHARGES

@<TRIPOS>ATOM
      1 C1         -0.0187    1.5258    0.0104 C.3       1 <0>        -0.1475
      2 C2          0.0021   -0.0041    0.0020 C.3       1 <0>         0.2583
      3 H1          0.5123   -0.3556   -0.8948 H         1 <0>         0.0927
      4 C3         -1.4117   -0.5257    0.0127 C.2       1 <0>         0.0412
      5 N1         -2.0675   -1.0519   -1.0114 N.2       1 <0>        -0.3773
      6 N2         -3.2447   -1.3745   -0.5961 N.2       1 <0>        -0.1935
      7 N3         -3.3481   -1.0688    0.6504 N.2       1 <0>        -0.1939
      8 N4         -2.2365   -0.5517    1.0495 N.2       1 <0>        -0.3818
      9 N5          0.7106   -0.4894    1.1889 N.am      1 <0>        -0.7103
     10 C4          2.0538   -0.5998    1.1737 C.2       1 <0>         0.5110
     11 O1          2.6758   -0.2974    0.1774 O.2       1 <0>        -0.5512
     12 C5          2.7826   -1.0990    2.3946 C.3       1 <0>        -0.1353
     13 C6          4.2865   -1.1286    2.1142 C.3       1 <0>        -0.0650
     14 C7          5.0153   -1.6278    3.3351 C.ar      1 <0>        -0.0710
     15 C8          5.4415   -0.7334    4.2996 C.ar      1 <0>        -0.1004
     16 C9          6.1101   -1.1907    5.4195 C.ar      1 <0>        -0.1121
     17 C10         6.3529   -2.5426    5.5759 C.ar      1 <0>        -0.0985
     18 C11         5.9263   -3.4376    4.6117 C.ar      1 <0>        -0.0875
     19 C12         5.2526   -2.9800    3.4934 C.ar      1 <0>        -0.0877
     20 Br1         6.2587   -5.2870    4.8247 Br        1 <0>        -0.0550
     21 H2          1.0039    1.9031    0.0027 H         1 <0>         0.0568
     22 H3         -0.5459    1.8868   -0.8726 H         1 <0>         0.0623
     23 H4         -0.5289    1.8773    0.9072 H         1 <0>         0.0579
     24 H5          0.2131   -0.7312    1.9857 H         1 <0>         0.4061
     25 H6          2.5826   -0.4337    3.2345 H         1 <0>         0.0944
     26 H7          2.4385   -2.1044    2.6374 H         1 <0>         0.0935
     27 H8          4.4865   -1.7939    1.2743 H         1 <0>         0.0837
     28 H9          4.6306   -0.1232    1.8714 H         1 <0>         0.0849
     29 H10         5.2523    0.3229    4.1776 H         1 <0>         0.1306
     30 H11         6.4432   -0.4917    6.1725 H         1 <0>         0.1311
     31 H12         6.8759   -2.8998    6.4507 H         1 <0>         0.1302
     32 H13         4.9160   -3.6789    2.7420 H         1 <0>         0.1335
@<TRIPOS>BOND
     1    1    2 1
     2    1   21 1
     3    1   22 1
     4    1   23 1
     5    2    3 1
     6    2    4 1
     7    2    9 1
     8    4    5 1
     9    4    8 2
    10    5    6 1
    11    6    7 2
    12    7    8 1
    13    9   10 am
    14    9   24 1
    15   10   11 2
    16   10   12 1
    17   12   13 1
    18   12   25 1
    19   12   26 1
    20   13   14 1
    21   13   27 1
    22   13   28 1
    23   14   19 ar
    24   14   15 ar
    25   15   16 ar
    26   15   29 1
    27   16   17 ar
    28   16   30 1
    29   17   18 ar
    30   17   31 1
    31   18   19 ar
    32   18   20 1
    33   19   32 1
@<TRIPOS>MOLECULE
ZINC54333882
   32    32     0     0     0
SMALL
USER_CHARGES

@<TRIPOS>ATOM
      1 C1         -0.0187    1.5258    0.0104 C.3       1 <0>        -0.1241
      2 C2          0.0021   -0.0041    0.0020 C.3       1 <0>        -0.1670
      3 H1         -1.0205   -0.3814    0.0098 H         1 <0>         0.0729
      4 C3          0.7421   -0.5109    1.2415 C.3       1 <0>         0.1393
      5 N1         -0.0083   -0.1401    2.4439 N.pl3     1 <0>        -1.1132
      6 S1          0.3413   -0.8608    3.8933 S.o2      1 <0>         2.6965
      7 O1         -0.5260   -0.2781    4.8563 O.2       1 <0>        -0.9675
      8 O2          0.3808   -2.2606    3.6517 O.2       1 <0>        -0.9530
      9 C4          1.9782   -0.3794    4.3331 C.ar      1 <0>        -0.6933
     10 C5          3.0559   -1.1413    3.9211 C.ar      1 <0>         0.0230
     11 C6          4.3402   -0.7662    4.2650 C.ar      1 <0>        -0.1415
     12 C7          4.5482    0.3763    5.0240 C.ar      1 <0>         0.1561
     13 C8          3.4652    1.1393    5.4357 C.ar      1 <0>        -0.2160
     14 C9          2.1832    0.7628    5.0848 C.ar      1 <0>         0.0231
     15 O3          5.8106    0.7471    5.3639 O.3       1 <0>        -0.3076
     16 C10         5.9494    1.9346    6.1467 C.3       1 <0>         0.6038
     17 F1          5.2648    1.7781    7.3567 F         1 <0>        -0.1633
     18 F2          7.3046    2.1676    6.4044 F         1 <0>        -0.1295
     19 F3          5.4146    3.0206    5.4454 F         1 <0>        -0.1615
     20 C11         0.7074   -0.4901   -1.2379 C.2       1 <0>         0.5009
     21 O4          1.7092   -1.1780   -1.1392 O.co2     1 <0>        -0.6949
     22 O5          0.2764   -0.1953   -2.3396 O.co2     1 <0>        -0.6949
     23 H2          1.0039    1.9031    0.0027 H         1 <0>         0.0473
     24 H3         -0.5459    1.8868   -0.8726 H         1 <0>         0.0593
     25 H4         -0.5289    1.8773    0.9072 H         1 <0>         0.0387
     26 H5          0.8346   -1.5958    1.1912 H         1 <0>         0.0843
     27 H6          1.7350   -0.0630    1.2804 H         1 <0>         0.0638
     28 H7         -0.7099    0.5276    2.3911 H         1 <0>         0.4152
     29 H8          2.8935   -2.0307    3.3303 H         1 <0>         0.1601
     30 H9          5.1817   -1.3621    3.9436 H         1 <0>         0.1511
     31 H10         3.6245    2.0292    6.0267 H         1 <0>         0.1416
     32 H11         1.3400    1.3589    5.4013 H         1 <0>         0.1505
@<TRIPOS>BOND
     1    1    2 1
     2    1   23 1
     3    1   24 1
     4    1   25 1
     5    2    3 1
     6    2    4 1
     7    2   20 1
     8    4    5 1
     9    4   26 1
    10    4   27 1
    11    5    6 1
    12    5   28 1
    13    6    7 2
    14    6    8 2
    15    6    9 1
    16    9   14 ar
    17    9   10 ar
    18   10   11 ar
    19   10   29 1
    20   11   12 ar
    21   11   30 1
    22   12   13 ar
    23   12   15 1
    24   13   14 ar
    25   13   31 1
    26   14   32 1
    27   15   16 1
    28   16   17 1
    29   16   18 1
    30   16   19 1
    31   20   21 2
    32   20   22 1
@<TRIPOS>MOLECULE
ZINC20203579
   32    33     0     0     0
SMALL
USER_CHARGES

@<TRIPOS>ATOM
      1 C1         -0.3953   -2.8422   -1.5582 C.3       1 <0>        -0.1496
      2 C2          0.6730   -1.8280   -1.1445 C.3       1 <0>        -0.0238
      3 H1          0.1993   -0.8721   -0.9210 H         1 <0>         0.1189
      4 C3          1.3944   -2.3296    0.0799 C.2       1 <0>         0.5079
      5 O1          1.7554   -3.4859    0.1399 O.2       1 <0>        -0.4901
      6 N1          1.6383   -1.4932    1.1082 N.am      1 <0>        -0.6660
      7 C4          2.2209   -1.9806    2.2834 C.ar      1 <0>         0.1722
      8 C5          1.8478   -1.4565    3.5142 C.ar      1 <0>        -0.1652
      9 C6          2.4247   -1.9397    4.6723 C.ar      1 <0>        -0.0042
     10 C7          3.3728   -2.9442    4.6072 C.ar      1 <0>        -0.6337
     11 C8          3.7468   -3.4679    3.3832 C.ar      1 <0>        -0.0035
     12 C9          3.1691   -2.9933    2.2219 C.ar      1 <0>        -0.1423
     13 S1          4.1064   -3.5579    6.0870 S.o2      1 <0>         2.6370
     14 O2          5.3604   -4.1151    5.7179 O.2       1 <0>        -1.0098
     15 O3          3.9869   -2.5268    7.0574 O.2       1 <0>        -1.0107
     16 N2          3.1667   -4.8153    6.6144 N.2       1 <0>        -1.0310
     17 C10         3.5074   -5.4971    7.7722 C.2       1 <0>         0.4016
     18 N3          4.5271   -5.2845    8.5765 N.2       1 <0>        -0.6660
     19 C11         4.7147   -6.0297    9.6515 C.2       1 <0>         0.1003
     20 C12         3.8139   -7.0146    9.8831 C.2       1 <0>        -0.3462
     21 S2          2.7133   -6.7932    8.4948 S.3       1 <0>         0.0101
     22 Cl1         1.8523   -1.6142   -2.4914 Cl        1 <0>        -0.1379
     23 H2         -1.1083   -2.9715   -0.7438 H         1 <0>         0.0790
     24 H3         -0.9171   -2.4794   -2.4437 H         1 <0>         0.0806
     25 H4          0.0783   -3.7981   -1.7816 H         1 <0>         0.0836
     26 H5          1.4101   -0.5534    1.0337 H         1 <0>         0.4130
     27 H6          1.1077   -0.6717    3.5656 H         1 <0>         0.1312
     28 H7          2.1353   -1.5323    5.6297 H         1 <0>         0.1431
     29 H8          4.4878   -4.2521    3.3357 H         1 <0>         0.1423
     30 H9          3.4578   -3.4062    1.2666 H         1 <0>         0.1433
     31 H10         5.5494   -5.8613   10.3158 H         1 <0>         0.1457
     32 H11         3.7712   -7.7334   10.6879 H         1 <0>         0.1705
@<TRIPOS>BOND
     1    1    2 1
     2    1   23 1
     3    1   24 1
     4    1   25 1
     5    2    3 1
     6    2    4 1
     7    2   22 1
     8    4    5 2
     9    4    6 am
    10    6    7 1
    11    6   26 1
    12    7   12 ar
    13    7    8 ar
    14    8    9 ar
    15    8   27 1
    16    9   10 ar
    17    9   28 1
    18   10   11 ar
    19   10   13 1
    20   11   12 ar
    21   11   29 1
    22   12   30 1
    23   13   14 2
    24   13   15 2
    25   13   16 1
    26   16   17 1
    27   17   21 1
    28   17   18 2
    29   18   19 1
    30   19   20 2
    31   19   31 1
    32   20   21 1
    33   20   32 1
