@<TRIPOS>MOLECULE
2NNQ-T4B
 61 65 0 0 0
SMALL
SF_CHARGES


@<TRIPOS>ATOM
1    C         2.3600   10.6210   15.5130  C.2        1 SUBUNIT     -0.0919
2    C         6.0970   10.0740   16.3860  C.2        1 SUBUNIT      0.0011
3    C         6.4370    8.6900   16.2580  C.2        1 SUBUNIT     -0.1122
4    C         4.9160   11.7070   14.8380  C.2        1 SUBUNIT     -0.0996
5    C         3.7310   12.2490   14.2720  C.2        1 SUBUNIT     -0.0935
6    C         6.9200    5.7870   16.8350  C.3        1 SUBUNIT      0.1880
7    C         6.7200    5.2070   15.4380  C.2        1 SUBUNIT      0.7598
8    C         7.5930    8.1560   16.9270  C.2        1 SUBUNIT      0.1611
9    C         8.4080    9.0190   17.7190  C.2        1 SUBUNIT     -0.1093
10   C         8.0780   10.4000   17.8420  C.2        1 SUBUNIT     -0.0959
11   C         6.9260   10.9280   17.1780  C.2        1 SUBUNIT     -0.1017
12   C         3.3590    6.9490   14.4400  C.3        1 SUBUNIT     -0.0967
13   C         2.5280    5.5810   18.2210  C.2        1 SUBUNIT     -0.0084
14   C         3.0490    6.9750   17.9580  C.2        1 SUBUNIT     -0.0428
15   C         2.8930    7.7040   16.8070  C.2        1 SUBUNIT      0.0377
16   C         2.2770    7.1780   15.5020  C.3        1 SUBUNIT     -0.0357
17   C         2.9070    3.2440   18.9290  C.2        1 SUBUNIT     -0.1052
18   C         4.1060    6.6740   22.5750  C.2        1 SUBUNIT     -0.1046
19   C         4.3410    7.5550   20.2760  C.2        1 SUBUNIT     -0.0295
20   C         1.1270    5.2900   18.0640  C.2        1 SUBUNIT     -0.1063
21   C         2.4560   11.7100   14.6080  C.2        1 SUBUNIT     -0.0998
22   C         5.6860    7.9410   20.5700  C.2        1 SUBUNIT     -0.1082
23   C         3.5450   10.0610   16.0900  C.2        1 SUBUNIT      0.0845
24   C         4.8400   10.6120   15.7530  C.2        1 SUBUNIT     -0.0220
25   O         7.2750    5.7190   14.4680  O.co2      1 SUBUNIT     -0.8801
26   O         5.9360    4.1630   15.2630  O.co2      1 SUBUNIT     -0.8801
27   O         7.9380    6.8180   16.8020  O.3        1 SUBUNIT     -0.3913
28   C         3.4130    4.5430   18.6550  C.2        1 SUBUNIT     -0.1063
29   N         3.4580    8.9580   16.9990  N.pl3      1 SUBUNIT     -0.0890
30   N         3.9960    9.0000   18.3230  N.2        1 SUBUNIT     -0.3774
31   C         3.7940    7.8620   18.9220  C.2        1 SUBUNIT      0.2481
32   C         3.5500    6.9180   21.2880  C.2        1 SUBUNIT     -0.1082
33   C         5.4470    7.0620   22.8580  C.2        1 SUBUNIT     -0.1075
34   C         6.2380    7.6950   21.8610  C.2        1 SUBUNIT     -0.1046
35   C         1.5210    2.9690   18.7680  C.2        1 SUBUNIT     -0.1091
36   C         0.6320    3.9900   18.3350  C.2        1 SUBUNIT     -0.1052
37   H         1.3937   10.2190   15.7629  H          1 SUBUNIT      0.1046
38   H         5.8210    8.0455   15.6556  H          1 SUBUNIT      0.1042
39   H         5.8722   12.1244   14.5750  H          1 SUBUNIT      0.1040
40   H         3.7986   13.0735   13.5839  H          1 SUBUNIT      0.1040
41   H         5.9845    6.2286   17.1939  H          1 SUBUNIT      0.0236
42   H         7.2404    4.9991   17.5246  H          1 SUBUNIT      0.0236
43   H         9.2733    8.6271   18.2244  H          1 SUBUNIT      0.1044
44   H         8.6990   11.0465   18.4371  H          1 SUBUNIT      0.1047
45   H         6.6823   11.9716   17.2748  H          1 SUBUNIT      0.1051
46   H         3.8885    7.8800   14.2121  H          1 SUBUNIT      0.0495
47   H         2.9217    6.5739   13.5088  H          1 SUBUNIT      0.0495
48   H         4.0975    6.2172   14.7837  H          1 SUBUNIT      0.0495
49   H         1.5549    7.9100   15.1254  H          1 SUBUNIT      0.0451
50   H         1.7661    6.2305   15.7027  H          1 SUBUNIT      0.0451
51   H         3.5742    2.4670   19.2590  H          1 SUBUNIT      0.1109
52   H         3.5125    6.1960   23.3346  H          1 SUBUNIT      0.1111
53   H         0.4460    6.0574   17.7398  H          1 SUBUNIT      0.1108
54   H         1.5634   12.1277   14.1761  H          1 SUBUNIT      0.1105
55   H         6.2851    8.4191   19.8149  H          1 SUBUNIT      0.1116
56   H         4.4634    4.7429   18.7750  H          1 SUBUNIT      0.1108
57   H         2.5366    6.6233   21.0784  H          1 SUBUNIT      0.1116
58   H         5.8647    6.8753   23.8319  H          1 SUBUNIT      0.1126
59   H         7.2499    7.9869   22.0815  H          1 SUBUNIT      0.1111
60   H         1.1431    1.9830   18.9750  H          1 SUBUNIT      0.1131
61   H        -0.4157    3.7777   18.2127  H          1 SUBUNIT      0.1109
@<TRIPOS>BOND
     1    1   21 2
     2    1   23 1
     3    2    3 2
     4    2   11 1
     5    2   24 1
     6    3    8 1
     7    4    5 2
     8    4   24 1
     9    5   21 1
    10    6    7 1
    11    6   27 1
    12    7   25 2
    13    7   26 1
    14    8    9 2
    15    8   27 1
    16    9   10 1
    17   10   11 2
    18   12   16 1
    19   13   14 1
    20   13   20 2
    21   13   28 1
    22   14   15 2
    23   14   31 1
    24   15   16 1
    25   15   29 1
    26   17   28 2
    27   17   35 1
    28   18   32 2
    29   18   33 1
    30   19   22 2
    31   19   31 1
    32   19   32 1
    33   20   36 1
    34   22   34 1
    35   23   24 2
    36   23   29 1
    37   29   30 1
    38   30   31 2
    39   33   34 2
    40   35   36 2
    41    1   37 1
    42    3   38 1
    43    4   39 1
    44    5   40 1
    45    6   41 1
    46    6   42 1
    47    9   43 1
    48   10   44 1
    49   11   45 1
    50   12   46 1
    51   12   47 1
    52   12   48 1
    53   16   49 1
    54   16   50 1
    55   17   51 1
    56   18   52 1
    57   20   53 1
    58   21   54 1
    59   22   55 1
    60   28   56 1
    61   32   57 1
    62   33   58 1
    63   34   59 1
    64   35   60 1
    65   36   61 1
